data_ReferenceDataBase/BEB
_audit_creation_method             Generated by GULP
_audit_author_name                 Salvador R. G. Balestra
_symmetry_space_group_name_H-M     'P 1             '
_symmetry_Int_Tables_number        1

loop_
_symmetry_equiv_pos_site_id
_symmetry_equiv_pos_as_xyz
   1     +x,+y,+z                
_cell_length_a                       17.6049
_cell_length_b                       17.6420
_cell_length_c                       14.3288
_cell_angle_alpha                   90.0003
_cell_angle_beta                   113.8402
_cell_angle_gamma                   89.9998

loop_
_atom_site_label
_atom_site_type_symbol
_atom_site_fract_x
_atom_site_fract_y
_atom_site_fract_z
_atom_site_charge
  Si     Si        0.603407299999958    0.976911399999949    0.375985300000025  0.0000
  Si     Si        0.384953399999972    0.979363400000011    0.110207800000012  0.0000
  Si     Si        0.101487600000041    0.479369199999951    0.381507199999987  0.0000
  Si     Si        0.883045700000025    0.476916299999971    0.115737299999978  0.0000
  Si     Si        0.384956800000054    0.017765299999951    0.610211299999946  0.0000
  Si     Si        0.603398699999957    0.020218099999965    0.875981199999956  0.0000
  Si     Si        0.883037100000024    0.520222699999977    0.615733100000057  0.0000
  Si     Si        0.101491099999976    0.517770700000028    0.881510800000001  0.0000
  Si     Si        0.477040900000020    0.852119600000037    0.381304699999987  0.0000
  Si     Si        0.511321599999974    0.853103300000043    0.110059200000023  0.0000
  Si     Si        0.975120999999945    0.353107499999965    0.381658300000026  0.0000
  Si     Si        0.009407200000055    0.352120199999945    0.110406699999999  0.0000
  Si     Si        0.511323299999958    0.144027000000051    0.610059999999976  0.0000
  Si     Si        0.477037300000006    0.145014199999991    0.881311999999980  0.0000
  Si     Si        0.009403600000041    0.645014299999957    0.610413999999992  0.0000
  Si     Si        0.975122700000043    0.644030799999996    0.881659000000013  0.0000
  Si     Si        0.698657600000047    0.707457999999974    0.608994400000029  0.0000
  Si     Si        0.287052099999983    0.707139299999994    0.881968600000050  0.0000
  Si     Si        0.199382499999956    0.207139999999981    0.609741500000041  0.0000
  Si     Si        0.787797500000011    0.207459299999982    0.882730300000048  0.0000
  Si     Si        0.287061799999947    0.289994299999989    0.381976799999961  0.0000
  Si     Si        0.698646800000006    0.289674900000023    0.108988299999965  0.0000
  Si     Si        0.787786800000049    0.789676399999962    0.382724199999984  0.0000
  Si     Si        0.199392200000034    0.789994999999976    0.109749800000031  0.0000
  Si     Si        0.824752200000034    0.831815300000017    0.603420600000049  0.0000
  Si     Si        0.164258499999960    0.835327600000028    0.890920000000051  0.0000
  Si     Si        0.322187399999962    0.335322399999995    0.600806799999987  0.0000
  Si     Si        0.661692199999948    0.331813200000056    0.888294900000005  0.0000
  Si     Si        0.164257000000021    0.161811899999975    0.390911699999947  0.0000
  Si     Si        0.824752200000034    0.165321199999994    0.103423799999973  0.0000
  Si     Si        0.661692099999982    0.665318800000023    0.388298100000043  0.0000
  Si     Si        0.322185800000057    0.661806599999977    0.100798299999951  0.0000
  Si     Si        0.578066600000056    0.833597100000020    0.611707300000035  0.0000
  Si     Si        0.408655500000009    0.829831199999944    0.878045599999950  0.0000
  Si     Si        0.077785400000039    0.329836799999953    0.613668699999948  0.0000
  Si     Si        0.908374800000047    0.333600499999989    0.880002699999977  0.0000
  Si     Si        0.408658899999978    0.167297400000052    0.378049499999975  0.0000
  Si     Si        0.578069600000049    0.163533499999971    0.111715900000036  0.0000
  Si     Si        0.908377699999960    0.663537600000041    0.380011299999978  0.0000
  Si     Si        0.077788700000042    0.667303100000026    0.113672500000007  0.0000
  Si     Si        0.703150199999982    0.956782299999986    0.605890100000011  0.0000
  Si     Si        0.285260799999946    0.955528200000003    0.879441899999961  0.0000
  Si     Si        0.201185000000009    0.455529999999953    0.612270699999954  0.0000
  Si     Si        0.783290899999997    0.456782599999997    0.885831499999995  0.0000
  Si     Si        0.285259399999973    0.041604200000052    0.379447799999980  0.0000
  Si     Si        0.703153599999951    0.040351600000008    0.105886899999973  0.0000
  Si     Si        0.783293999999955    0.540351999999984    0.385828100000026  0.0000
  Si     Si        0.201183600000036    0.541606099999967    0.112276500000007  0.0000
  Si     Si        0.492331899999954    0.889032400000019    0.745387599999958  0.0000
  Si     Si        0.994111100000055    0.389041600000041    0.746328100000028  0.0000
  Si     Si        0.492333300000041    0.108092400000032    0.245390599999951  0.0000
  Si     Si        0.994112500000028    0.608102099999996    0.246331100000020  0.0000
  Si     Si        0.687190900000019    0.914926400000013    0.238205200000039  0.0000
  Si     Si        0.302460600000018    0.916150900000048    0.248006099999998  0.0000
  Si     Si        0.183987799999954    0.416144899999949    0.243714199999999  0.0000
  Si     Si        0.799251899999945    0.414923199999976    0.253505399999995  0.0000
  Si     Si        0.302456600000028    0.080989599999953    0.748004400000013  0.0000
  Si     Si        0.687192200000027    0.082211199999961    0.738212699999963  0.0000
  Si     Si        0.799253199999953    0.582207599999947    0.753512600000022  0.0000
  Si     Si        0.183983799999965    0.580983199999991    0.743712500000015  0.0000
  Si     Si        0.490934400000015    0.722302099999979    0.244462200000044  0.0000
  Si     Si        0.995509699999957    0.222306499999945    0.247250300000019  0.0000
  Si     Si        0.490934799999991    0.274827899999991    0.744468299999994  0.0000
  Si     Si        0.995509999999967    0.774831999999947    0.747255999999993  0.0000
  O      O         0.543734699999959    0.904892000000018    0.361859500000037  0.0000
  O      O         0.456479500000000    0.916057300000034    0.135954200000015  0.0000
  O      O         0.029947699999980    0.416078900000002    0.355769600000031  0.0000
  O      O         0.942736900000000    0.404910599999994    0.129872800000044  0.0000
  O      O         0.456496600000037    0.081055600000013    0.635948699999972  0.0000
  O      O         0.543707700000027    0.092223800000056    0.861846099999980  0.0000
  O      O         0.942710000000034    0.592242000000056    0.629860000000008  0.0000
  O      O         0.029965100000027    0.581076800000005    0.855764399999998  0.0000
  O      O         0.660731000000055    0.991751700000009    0.493446400000039  0.0000
  O      O         0.334927999999991    0.990994300000011    0.990503200000035  0.0000
  O      O         0.151524300000005    0.490999699999975    0.501210600000036  0.0000
  O      O         0.825724199999968    0.491751000000022    0.998274300000048  0.0000
  O      O         0.334920000000011    0.006134699999961    0.490507999999977  0.0000
  O      O         0.660720999999967    0.005383499999994    0.993443800000023  0.0000
  O      O         0.825714599999969    0.505382400000030    0.498271499999987  0.0000
  O      O         0.151516499999957    0.506139800000028    0.001215300000013  0.0000
  O      O         0.551282099999980    0.052442400000018    0.333171200000038  0.0000
  O      O         0.425040899999999    0.059460400000034    0.155256000000008  0.0000
  O      O         0.061411900000053    0.559469499999977    0.336457999999993  0.0000
  O      O         0.935154699999998    0.552454799999964    0.158553099999949  0.0000
  O      O         0.425032600000009    0.937665000000038    0.655260600000020  0.0000
  O      O         0.551289399999973    0.944679599999972    0.833165799999961  0.0000
  O      O         0.935161999999991    0.444691600000056    0.658547500000054  0.0000
  O      O         0.061403700000028    0.437673700000005    0.836462500000039  0.0000
  O      O         0.663462600000003    0.958716099999947    0.320347900000002  0.0000
  O      O         0.320767199999977    0.952328100000045    0.156653699999993  0.0000
  O      O         0.165663999999992    0.452317500000049    0.335055699999998  0.0000
  O      O         0.822988200000054    0.458708000000001    0.171366600000056  0.0000
  O      O         0.320780499999955    0.044816900000001    0.656662900000015  0.0000
  O      O         0.663455500000055    0.038426200000004    0.820350800000028  0.0000
  O      O         0.822980899999948    0.538418099999944    0.671369300000038  0.0000
  O      O         0.165677400000050    0.544805900000028    0.835064900000020  0.0000
  O      O         0.503518900000017    0.837170900000046    0.500511299999971  0.0000
  O      O         0.479862000000026    0.839406700000040    0.990312199999948  0.0000
  O      O         0.006574699999987    0.339410100000009    0.501404500000035  0.0000
  O      O         0.982923099999994    0.337185299999987    0.991196599999967  0.0000
  O      O         0.479869499999950    0.157724600000051    0.490313900000046  0.0000
  O      O         0.503521099999944    0.159949099999949    0.000522100000012  0.0000
  O      O         0.982925199999954    0.659962500000006    0.491207199999963  0.0000
  O      O         0.006581999999980    0.657727499999964    0.001405999999974  0.0000
  O      O         0.387780499999963    0.891061100000002    0.339187599999946  0.0000
  O      O         0.605633099999977    0.880077099999994    0.149753499999974  0.0000
  O      O         0.880801700000006    0.380058699999950    0.341952799999945  0.0000
  O      O         0.098681100000022    0.391033300000004    0.152529699999945  0.0000
  O      O         0.605642600000010    0.117075799999952    0.649765300000013  0.0000
  O      O         0.387763299999961    0.106101299999978    0.839188799999988  0.0000
  O      O         0.098663900000020    0.606073000000038    0.652530999999954  0.0000
  O      O         0.880811200000039    0.617056800000000    0.841964200000007  0.0000
  O      O         0.473237700000027    0.772383900000023    0.326799499999993  0.0000
  O      O         0.504698599999983    0.774764499999947    0.161661699999968  0.0000
  O      O         0.981773299999986    0.274775200000022    0.330063300000006  0.0000
  O      O         0.013181300000042    0.272381699999983    0.164890600000035  0.0000
  O      O         0.504671199999962    0.222359200000028    0.661655300000007  0.0000
  O      O         0.473263500000030    0.224752699999954    0.826828200000023  0.0000
  O      O         0.013206900000000    0.724750200000017    0.664918899999975  0.0000
  O      O         0.981745700000033    0.722369699999945    0.830056600000034  0.0000
  O      O         0.775594500000011    0.758518099999947    0.614891599999964  0.0000
  O      O         0.215571999999952    0.763584300000048    0.880155899999977  0.0000
  O      O         0.270869700000048    0.263580700000034    0.611565400000018  0.0000
  O      O         0.710862499999962    0.258523699999955    0.876828799999998  0.0000
  O      O         0.215574599999968    0.233553600000050    0.380153100000030  0.0000
  O      O         0.775582099999951    0.238610799999947    0.114889700000049  0.0000
  O      O         0.710850499999992    0.738615399999958    0.376826700000038  0.0000
  O      O         0.270872400000030    0.733550000000037    0.111562499999991  0.0000
  O      O         0.628084199999989    0.755802199999948    0.625009599999998  0.0000
  O      O         0.361989500000050    0.750285500000018    0.868266999999946  0.0000
  O      O         0.124448799999982    0.250289899999984    0.623447199999987  0.0000
  O      O         0.858370799999989    0.255798499999969    0.866707499999961  0.0000
  O      O         0.361995299999990    0.246844300000021    0.368270599999960  0.0000
  O      O         0.628073900000004    0.241335299999946    0.125011399999948  0.0000
  O      O         0.858361199999990    0.741333100000020    0.366710000000012  0.0000
  O      O         0.124454600000035    0.746848799999952    0.123451000000045  0.0000
  O      O         0.731655700000033    0.646431099999973    0.699041100000045  0.0000
  O      O         0.247561199999950    0.649967400000037    0.787657399999944  0.0000
  O      O         0.238864100000001    0.149960599999986    0.704044299999964  0.0000
  O      O         0.754799199999979    0.146425499999964    0.792692099999954  0.0000
  O      O         0.247580299999981    0.347173799999950    0.287674199999969  0.0000
  O      O         0.731644899999992    0.350708800000007    0.199026399999980  0.0000
  O      O         0.754788400000052    0.850702899999987    0.292677099999992  0.0000
  O      O         0.238883099999953    0.847166799999968    0.204061000000024  0.0000
  O      O         0.659891300000027    0.665984299999991    0.499700500000017  0.0000
  O      O         0.322990200000049    0.662227099999996    0.988860700000032  0.0000
  O      O         0.163441300000045    0.162235900000042    0.502842999999984  0.0000
  O      O         0.826567100000034    0.165994299999966    0.992029499999944  0.0000
  O      O         0.323003399999948    0.334898100000032    0.488875499999949  0.0000
  O      O         0.659876899999972    0.331139699999994    0.999688999999989  0.0000
  O      O         0.826552200000037    0.831150800000046    0.492017799999985  0.0000
  O      O         0.163454200000047    0.834907199999975    0.002857599999970  0.0000
  O      O         0.784284899999989    0.909355200000050    0.618924500000048  0.0000
  O      O         0.202939199999946    0.913750700000037    0.874441599999955  0.0000
  O      O         0.283505399999967    0.413747899999976    0.617274599999973  0.0000
  O      O         0.702156100000025    0.409360600000014    0.872809699999948  0.0000
  O      O         0.202938900000049    0.083386399999995    0.374443400000018  0.0000
  O      O         0.784288400000037    0.087773900000002    0.118909600000052  0.0000
  O      O         0.702159199999983    0.587778299999968    0.372795399999973  0.0000
  O      O         0.283505099999957    0.583383600000047    0.117276700000048  0.0000
  O      O         0.916869099999985    0.828395999999998    0.690366899999958  0.0000
  O      O         0.071904900000050    0.830653399999960    0.804634400000054  0.0000
  O      O         0.414535999999998    0.330648399999973    0.687104999999974  0.0000
  O      O         0.569581999999969    0.328389300000026    0.801332699999989  0.0000
  O      O         0.071908300000018    0.166485899999998    0.304613600000039  0.0000
  O      O         0.916862400000014    0.168745299999955    0.190385799999945  0.0000
  O      O         0.569575399999962    0.668738299999973    0.301351100000034  0.0000
  O      O         0.414539399999967    0.666480800000045    0.187084000000027  0.0000
  O      O         0.637290900000039    0.905332899999962    0.627608699999996  0.0000
  O      O         0.344060000000013    0.898269799999980    0.853029099999958  0.0000
  O      O         0.142380900000035    0.398274199999946    0.638677099999995  0.0000
  O      O         0.849137799999994    0.405326700000046    0.864097600000036  0.0000
  O      O         0.344063600000027    0.098859899999979    0.353041400000052  0.0000
  O      O         0.637306200000012    0.091807099999983    0.127620299999990  0.0000
  O      O         0.849152000000004    0.591802499999972    0.364108299999998  0.0000
  O      O         0.142384200000038    0.598864499999991    0.138688999999999  0.0000
  O      O         0.542572599999971    0.836777200000029    0.698394000000008  0.0000
  O      O         0.448540900000012    0.831766300000027    0.795405400000050  0.0000
  O      O         0.037907199999950    0.331775900000025    0.696315899999945  0.0000
  O      O         0.943863899999997    0.336786100000040    0.793311700000004  0.0000
  O      O         0.448537200000032    0.165358200000014    0.295402500000023  0.0000
  O      O         0.542580700000030    0.160347799999954    0.198407100000054  0.0000
  O      O         0.943871899999976    0.660357500000032    0.293324800000050  0.0000
  O      O         0.037903400000005    0.665367999999944    0.196312899999953  0.0000
  O      O         0.730124199999977    0.024571400000013    0.687314000000015  0.0000
  O      O         0.258449000000041    0.021131699999955    0.794722099999944  0.0000
  O      O         0.227998500000012    0.521132299999977    0.696993600000042  0.0000
  O      O         0.756314699999962    0.524572600000056    0.804408800000033  0.0000
  O      O         0.258446000000049    0.976001699999983    0.294724900000006  0.0000
  O      O         0.730129600000055    0.972561499999983    0.187309199999959  0.0000
  O      O         0.756320100000039    0.472563199999968    0.304403999999977  0.0000
  O      O         0.227995500000020    0.476002799999947    0.196996600000034  0.0000
