data_ReferenceDataBase/BEB
_audit_creation_method             Generated by GULP
_audit_author_name                 Salvador R. G. Balestra
_symmetry_space_group_name_H-M     'P 1             '
_symmetry_Int_Tables_number        1

loop_
_symmetry_equiv_pos_site_id
_symmetry_equiv_pos_as_xyz
   1     +x,+y,+z                
_cell_length_a                       17.6049
_cell_length_b                       17.6419
_cell_length_c                       14.3288
_cell_angle_alpha                   90.0004
_cell_angle_beta                   113.8401
_cell_angle_gamma                   89.9998

loop_
_atom_site_label
_atom_site_type_symbol
_atom_site_fract_x
_atom_site_fract_y
_atom_site_fract_z
_atom_site_charge
  Si     Si        0.603407327501405    0.976911372794703    0.375985298457007  0.0000
  Si     Si        0.384966241418415    0.979364938313784    0.110216645425378  0.0000
  Si     Si        0.101495232540227    0.479365659205094    0.381520198359628  0.0000
  Si     Si        0.883047302289657    0.476907319983262    0.115745420620382  0.0000
  Si     Si        0.384958548425395    0.017764246202940    0.610211375437382  0.0000
  Si     Si        0.603407724472680    0.020221232961226    0.875986061803002  0.0000
  Si     Si        0.883048308768337    0.520218748434355    0.615746955884168  0.0000
  Si     Si        0.101486066134733    0.517762628177356    0.881513796552008  0.0000
  Si     Si        0.477044657458422    0.852116468502179    0.381315161438398  0.0000
  Si     Si        0.511330104055449    0.853102165147349    0.110063078262149  0.0000
  Si     Si        0.975126460692164    0.353102211657589    0.381661700957856  0.0000
  Si     Si        0.009408426304130    0.352114397978113    0.110414108435651  0.0000
  Si     Si        0.511327212073642    0.144026516533528    0.610067179964461  0.0000
  Si     Si        0.477045733366827    0.145014817157299    0.881316306276431  0.0000
  Si     Si        0.009409795155542    0.645013322316263    0.610413161729733  0.0000
  Si     Si        0.975122950351080    0.644026026418954    0.881667367049628  0.0000
  Si     Si        0.698652845272236    0.707455107784833    0.608993387937422  0.0000
  Si     Si        0.287064353028366    0.707137285304476    0.881979374234118  0.0000
  Si     Si        0.199396599312375    0.207134872906656    0.609753429333961  0.0000
  Si     Si        0.787794546255879    0.207456009228087    0.882730486249000  0.0000
  Si     Si        0.287056502997967    0.289993767353935    0.381976637299997  0.0000
  Si     Si        0.698659089880285    0.289673184530189    0.108999348754728  0.0000
  Si     Si        0.787799072788107    0.789672724609170    0.382736873434607  0.0000
  Si     Si        0.199389464763421    0.789991490851319    0.109750056004878  0.0000
  Si     Si        0.824759184355913    0.831806117942464    0.603433567078915  0.0000
  Si     Si        0.164264697636618    0.835324679552518    0.890923627905634  0.0000
  Si     Si        0.322190887715983    0.335323747187769    0.600807274556907  0.0000
  Si     Si        0.661695738479564    0.331812556572440    0.888304433139580  0.0000
  Si     Si        0.164262329716789    0.161804748228260    0.390922993605427  0.0000
  Si     Si        0.824757686127295    0.165317344775261    0.103425594771207  0.0000
  Si     Si        0.661694153133511    0.665320757148554    0.388297833399497  0.0000
  Si     Si        0.322189000119709    0.661803925366565    0.100805641240467  0.0000
  Si     Si        0.578072601097170    0.833599790231838    0.611715177157548  0.0000
  Si     Si        0.408661731391118    0.829830944207664    0.878050152995452  0.0000
  Si     Si        0.077789783583745    0.329826083175361    0.613673164443707  0.0000
  Si     Si        0.908379348061620    0.333596082697723    0.880011855850530  0.0000
  Si     Si        0.408662257784995    0.167301716236970    0.378055424386968  0.0000
  Si     Si        0.578074212739589    0.163532427480847    0.111718477614793  0.0000
  Si     Si        0.908379803278286    0.663529201907235    0.380013390407729  0.0000
  Si     Si        0.077791802305505    0.667298472496424    0.113679513003119  0.0000
  Si     Si        0.703157998039628    0.956780099965579    0.605887842592405  0.0000
  Si     Si        0.285267003659892    0.955526546792230    0.879451806686410  0.0000
  Si     Si        0.201186834551959    0.455524910427044    0.612284350096388  0.0000
  Si     Si        0.783296606643978    0.456780637746167    0.885840500888704  0.0000
  Si     Si        0.285266093936755    0.041603240909278    0.379446853000478  0.0000
  Si     Si        0.703157426867946    0.040348052395495    0.105890413256138  0.0000
  Si     Si        0.783296659785812    0.540348341142034    0.385843765278303  0.0000
  Si     Si        0.201186885336458    0.541602173229707    0.112277964919502  0.0000
  Si     Si        0.492335375782142    0.889037125673355    0.745392196554371  0.0000
  Si     Si        0.994116067335235    0.389031164378173    0.746332121360448  0.0000
  Si     Si        0.492338133813659    0.108096995508003    0.245398241305602  0.0000
  Si     Si        0.994118988709399    0.608092201661052    0.246338457642094  0.0000
  Si     Si        0.687198812296865    0.914920155688766    0.238211767466095  0.0000
  Si     Si        0.302465841824935    0.916144268568059    0.248008257976844  0.0000
  Si     Si        0.183986397900939    0.416147554820994    0.243718039028841  0.0000
  Si     Si        0.799258667216343    0.414923275278525    0.253520557749510  0.0000
  Si     Si        0.302467256091358    0.080981933740854    0.748012979930058  0.0000
  Si     Si        0.687195014789098    0.082205717418537    0.738209176258603  0.0000
  Si     Si        0.799254668694447    0.582210137878822    0.753519060140803  0.0000
  Si     Si        0.183986906201989    0.580985559689713    0.743721569503055  0.0000
  Si     Si        0.490935854715453    0.722301131765637    0.244466555647988  0.0000
  Si     Si        0.995516494061528    0.222300647082950    0.247255499925357  0.0000
  Si     Si        0.490938027348021    0.274828230496095    0.744473108028239  0.0000
  Si     Si        0.995519131668562    0.774826564228493    0.747262988648075  0.0000
  O      O         0.543729874475676    0.904896937819505    0.361864476234932  0.0000
  O      O         0.456508389299137    0.916074183595179    0.135964481296430  0.0000
  O      O         0.029960584597715    0.416068507927311    0.355776183825820  0.0000
  O      O         0.942715657586746    0.404884148200135    0.129868676660295  0.0000
  O      O         0.456492108317708    0.081062480074636    0.635955362281583  0.0000
  O      O         0.543738587963928    0.092243413439432    0.861864720794354  0.0000
  O      O         0.942727099970022    0.592232075499136    0.629867777563905  0.0000
  O      O         0.029937955708025    0.581046833922649    0.855768238772071  0.0000
  O      O         0.660740983043164    0.991747768447496    0.493443462174500  0.0000
  O      O         0.334939069930680    0.990992397943869    0.990512064570740  0.0000
  O      O         0.151528005685405    0.490994452357999    0.501223921615379  0.0000
  O      O         0.825722616067103    0.491748265755428    0.998285189648654  0.0000
  O      O         0.334926461671139    0.006135012402015    0.490507740065220  0.0000
  O      O         0.660734395642530    0.005379740568314    0.993445748187470  0.0000
  O      O         0.825715272581297    0.505382229894369    0.498288773017614  0.0000
  O      O         0.151515816225137    0.506135102362940    0.001218215157079  0.0000
  O      O         0.551286632221236    0.052445721512573    0.333177769880844  0.0000
  O      O         0.425038705468454    0.059467133046234    0.155266603974436  0.0000
  O      O         0.061415468553146    0.559465766257701    0.336476300893281  0.0000
  O      O         0.935178296455013    0.552436163333493    0.158558757100436  0.0000
  O      O         0.425039107308576    0.937664707191108    0.655255879251148  0.0000
  O      O         0.551277719663803    0.944692009169476    0.833172217520586  0.0000
  O      O         0.935167875450286    0.444684156816148    0.658554983683147  0.0000
  O      O         0.061419197916721    0.437659004048104    0.836462817922075  0.0000
  O      O         0.663454078700066    0.958713522872250    0.320338062841291  0.0000
  O      O         0.320783764234603    0.952314432058508    0.156660496976701  0.0000
  O      O         0.165674894675132    0.452323253547924    0.335067965595812  0.0000
  O      O         0.822992539698104    0.458717435624712    0.171385582523149  0.0000
  O      O         0.320778502534213    0.044805903862502    0.656663161585079  0.0000
  O      O         0.663461397562591    0.038413084256560    0.820345184712970  0.0000
  O      O         0.823001655124939    0.538417894497213    0.671393759177877  0.0000
  O      O         0.165665287148027    0.544820173598112    0.835068941245318  0.0000
  O      O         0.503522564435399    0.837172190288275    0.500522083945199  0.0000
  O      O         0.479868926088721    0.839411368243097    0.990315053334772  0.0000
  O      O         0.006584081534325    0.339394790860182    0.501405655824025  0.0000
  O      O         0.982928854600185    0.337174211427344    0.991205353558385  0.0000
  O      O         0.479868239703694    0.157732277684479    0.490322683929713  0.0000
  O      O         0.503524539067460    0.159957923838817    0.000524477591317  0.0000
  O      O         0.982930001086611    0.659956265346602    0.491205828729917  0.0000
  O      O         0.006583546469418    0.657718951592786    0.001415007662348  0.0000
  O      O         0.387778164856772    0.891044817316441    0.339194127729757  0.0000
  O      O         0.605651916707176    0.880049803839229    0.149763069110159  0.0000
  O      O         0.880812429221614    0.380064770946043    0.341967016320094  0.0000
  O      O         0.098669522139805    0.391054558244795    0.152533338025814  0.0000
  O      O         0.605640603028001    0.117061614444978    0.649760365791747  0.0000
  O      O         0.387784338748687    0.106075207992047    0.839197216822738  0.0000
  O      O         0.098677309250725    0.606087175057334    0.652533298768404  0.0000
  O      O         0.880798993281768    0.617086043907384    0.841965000190505  0.0000
  O      O         0.473255814392464    0.772380144788218    0.326818155823276  0.0000
  O      O         0.504678284209519    0.774765728354210    0.161653214163492  0.0000
  O      O         0.981761302657586    0.274772143256729    0.330052490977947  0.0000
  O      O         0.013211084531050    0.272374780470376    0.164910748038755  0.0000
  O      O         0.504695352825129    0.222357966486268    0.661676185971477  0.0000
  O      O         0.473243963196256    0.224753131438321    0.826817265968776  0.0000
  O      O         0.013197582067613    0.724750071091268    0.664908430654934  0.0000
  O      O         0.981784029884192    0.722358921038725    0.830077885228841  0.0000
  O      O         0.775594801695424    0.758511245171900    0.614897604470644  0.0000
  O      O         0.215584765300695    0.763584462784804    0.880164179724913  0.0000
  O      O         0.270878611105242    0.263578182656189    0.611567036039197  0.0000
  O      O         0.710860243715434    0.258520075687951    0.876833476007625  0.0000
  O      O         0.215574644448192    0.233550242641548    0.380162916947919  0.0000
  O      O         0.775595191531068    0.238611521137029    0.114896201114052  0.0000
  O      O         0.710857846877540    0.738616066159351    0.376833414607293  0.0000
  O      O         0.270868491788533    0.733543855729515    0.111564794840074  0.0000
  O      O         0.628086558885629    0.755803291381895    0.625018574646793  0.0000
  O      O         0.362001853601140    0.750281994503842    0.868275127547971  0.0000
  O      O         0.124460606202490    0.250282480106062    0.623457167945306  0.0000
  O      O         0.858368989676237    0.255797238211979    0.866712607386050  0.0000
  O      O         0.361992394350145    0.246845792549184    0.368272826568955  0.0000
  O      O         0.628087554201017    0.241329823796903    0.125020648125024  0.0000
  O      O         0.858365252281702    0.741325119053792    0.366710651267850  0.0000
  O      O         0.124451744674936    0.746847517784063    0.123454736364806  0.0000
  O      O         0.731642595174837    0.646418346352626    0.699027636369461  0.0000
  O      O         0.247574510207729    0.649961826844280    0.787671977579957  0.0000
  O      O         0.238886171804706    0.149963287967861    0.704064530790065  0.0000
  O      O         0.754794915379095    0.146425846956386    0.792687409288366  0.0000
  O      O         0.247567026180860    0.347165734230513    0.287665954944705  0.0000
  O      O         0.731657231027325    0.350704859570580    0.199040500794083  0.0000
  O      O         0.754807832934766    0.850709023553748    0.292702018225067  0.0000
  O      O         0.238880412234026    0.847166348835990    0.204057952674336  0.0000
  O      O         0.659880283033342    0.665990966665959    0.499693131234643  0.0000
  O      O         0.323003925033945    0.662228416138984    0.988873622174931  0.0000
  O      O         0.163457381424311    0.162222631785825    0.502860201567350  0.0000
  O      O         0.826562041977198    0.165985018153954    0.992025489952917  0.0000
  O      O         0.322995304711471    0.334906223368987    0.488869764632974  0.0000
  O      O         0.659889131973680    0.331142476641947    0.999703266303440  0.0000
  O      O         0.826572427324675    0.831136339389473    0.492037629729922  0.0000
  O      O         0.163450057203421    0.834900447213378    0.002855810615685  0.0000
  O      O         0.784290983690900    0.909349600938515    0.618924871714832  0.0000
  O      O         0.202945333681016    0.913751444399446    0.874456312946835  0.0000
  O      O         0.283509128656190    0.413745103543183    0.617290606175755  0.0000
  O      O         0.702160112493943    0.409357133274043    0.872809796630067  0.0000
  O      O         0.202944115193502    0.083383027377372    0.374441322592765  0.0000
  O      O         0.784292857926751    0.087774119683236    0.118923379285347  0.0000
  O      O         0.702163462738525    0.587777809461423    0.372807286586581  0.0000
  O      O         0.283508852177077    0.583376932133128    0.117273493177698  0.0000
  O      O         0.916870128481339    0.828385447533710    0.690394636053838  0.0000
  O      O         0.071915532968506    0.830650245441970    0.804626348315930  0.0000
  O      O         0.414544518320681    0.330650122261740    0.687092718419098  0.0000
  O      O         0.569581404379277    0.328390177255415    0.801353049188428  0.0000
  O      O         0.071909135283694    0.166477885383817    0.304636451890450  0.0000
  O      O         0.916872521826334    0.168739503634194    0.190375840152874  0.0000
  O      O         0.569582767494519    0.668739970218273    0.301337870360260  0.0000
  O      O         0.414538216776978    0.666479139798983    0.187102440663908  0.0000
  O      O         0.637297285465628    0.905333125395620    0.627606213151989  0.0000
  O      O         0.344060730950271    0.898265164177576    0.853033269516029  0.0000
  O      O         0.142380494477909    0.398268052900360    0.638685610067500  0.0000
  O      O         0.849149461147208    0.405327125806081    0.864113778921102  0.0000
  O      O         0.344071073548504    0.098860054115996    0.353042645424851  0.0000
  O      O         0.637300792077771    0.091799000018503    0.127613775949719  0.0000
  O      O         0.849155510076494    0.591795872767327    0.364122949635580  0.0000
  O      O         0.142392572594629    0.598864272383228    0.138694119033109  0.0000
  O      O         0.542587066765008    0.836785214326457    0.698409919515956  0.0000
  O      O         0.448543546718246    0.831768239930541    0.795405743149685  0.0000
  O      O         0.037903301166326    0.331761269602131    0.696312809848778  0.0000
  O      O         0.943868511210401    0.336780098111444    0.793320520272250  0.0000
  O      O         0.448547792931941    0.165366137011824    0.295414812594708  0.0000
  O      O         0.542585444134520    0.160348879417857    0.198410275559013  0.0000
  O      O         0.943865275436238    0.660343977116189    0.293318472245372  0.0000
  O      O         0.037911176516499    0.665360848247346    0.196325086101312  0.0000
  O      O         0.730132931972441    0.024571262964682    0.687310556847957  0.0000
  O      O         0.258453641239910    0.021129946426324    0.794731402564707  0.0000
  O      O         0.227997888678167    0.521125161876570    0.697010173567447  0.0000
  O      O         0.756323353820246    0.524572030324971    0.804420437761837  0.0000
  O      O         0.258454041067820    0.976001551069213    0.294722813699659  0.0000
  O      O         0.730132506133645    0.972557234538622    0.187311601852337  0.0000
  O      O         0.756322160167616    0.472556549687444    0.304422058332749  0.0000
  O      O         0.227999998999962    0.475999999000010    0.197000000000003  0.0000
