data_ReferenceDataBase/COE-11
_audit_creation_method             Generated by GULP
_audit_author_name                 Salvador R. G. Balestra
_symmetry_space_group_name_H-M     'P 1             '
_symmetry_Int_Tables_number        1

loop_
_symmetry_equiv_pos_site_id
_symmetry_equiv_pos_as_xyz
   1     +x,+y,+z                
_cell_length_a                       17.4146
_cell_length_b                       17.3906
_cell_length_c                       14.4451
_cell_angle_alpha                   90.0000
_cell_angle_beta                   112.9738
_cell_angle_gamma                   90.0000

loop_
_atom_site_label
_atom_site_type_symbol
_atom_site_fract_x
_atom_site_fract_y
_atom_site_fract_z
_atom_site_charge
  Si     Si        0.013540600000056    0.888923200000022    0.515656799999988  0.0000
  Si     Si        0.820211200000017    0.698238999999944    0.526294600000028  0.0000
  Si     Si        0.013331699999981    0.504844599999956    0.515412299999980  0.0000
  Si     Si        0.689483500000051    0.572509800000034    0.513654399999950  0.0000
  Si     Si        0.985545999999999    0.617169900000022    0.660887099999968  0.0000
  Si     Si        0.641643100000010    0.879502399999978    0.516520600000035  0.0000
  Si     Si        0.802304499999991    0.817203199999994    0.679995699999949  0.0000
  Si     Si        0.901806200000010    0.552486300000055    0.797100799999953  0.0000
  Si     Si        0.514402900000050    0.753212200000007    0.508345800000029  0.0000
  Si     Si        0.797226300000034    0.438350300000025    0.640366699999959  0.0000
  Si     Si        0.850746999999956    0.808642100000043    0.382010799999989  0.0000
  Si     Si        0.780338300000039    0.683044200000040    0.807617199999981  0.0000
  Si     Si        0.609922800000049    0.630675300000007    0.662817399999994  0.0000
  Si     Si        0.095283600000016    0.753674899999965    0.786250699999982  0.0000
  Si     Si        0.975571199999990    0.885599999999954    0.805109099999981  0.0000
  Si     Si        0.990781399999946    0.002289600000040    0.666076200000020  0.0000
  Si     Si        0.890145400000051    0.710423999999989    0.023580100000004  0.0000
  Si     Si        0.009057600000006    0.585279799999967    0.011484399999972  0.0000
  Si     Si        0.014049500000056    0.834812899999974    0.016641000000050  0.0000
  O      O         0.620533499999965    0.549655000000030    0.405166499999950  0.0000
  O      O         0.030412700000056    0.559581500000036    0.611024199999974  0.0000
  O      O         0.815200000000004    0.736695700000041    0.422855899999945  0.0000
  O      O         0.475386400000048    0.697200100000032    0.412038100000018  0.0000
  O      O         0.721521899999971    0.868399700000055    0.619907900000044  0.0000
  O      O         0.951781600000004    0.534822500000018    0.915666999999985  0.0000
  O      O         0.878181300000051    0.873583299999950    0.738327700000013  0.0000
  O      O         0.148598999999990    0.722857999999974    0.899036499999966  0.0000
  O      O         0.807102500000042    0.690764199999990    0.927033199999983  0.0000
  O      O         0.993078900000000    0.892291699999987    0.922808799999984  0.0000
  O      O         0.668127499999969    0.890013599999975    0.422296400000050  0.0000
  O      O         0.841187999999988    0.625689599999987    0.780418599999962  0.0000
  O      O         0.849710999999957    0.476671900000042    0.747941299999979  0.0000
  O      O         0.987844699999982    0.927032100000019    0.600088300000039  0.0000
  O      O         0.852665300000012    0.787769300000036    0.274280399999952  0.0000
  O      O         0.593956100000014    0.953881199999955    0.531439500000033  0.0000
  O      O         0.932245299999977    0.783866300000000    0.995366600000011  0.0000
  O      O         0.026760599999989    0.813970599999948    0.788391400000023  0.0000
  O      O         0.583326100000022    0.804487900000026    0.489427399999954  0.0000
  O      O         0.825228799999991    0.766105199999970    0.602538800000048  0.0000
  O      O         0.783821699999976    0.764942799999972    0.759809099999984  0.0000
  O      O         0.965916600000014    0.571908399999984    0.745718499999953  0.0000
  O      O         0.953850600000010    0.639226000000008    0.051669700000048  0.0000
  O      O         0.900950699999953    0.645064800000000    0.572223399999984  0.0000
  O      O         0.553174099999978    0.574833499999954    0.696879399999943  0.0000
  O      O         0.736833000000047    0.648569199999997    0.502108799999974  0.0000
  O      O         0.047658700000056    0.686641300000019    0.709871099999987  0.0000
  O      O         0.641581699999961    0.587895499999945    0.586228499999947  0.0000
  O      O         0.686727799999971    0.652351800000019    0.764380899999992  0.0000
  O      O         0.944841900000029    0.825591199999963    0.458462499999996  0.0000
  O      O         0.002145700000028    0.967574199999945    0.774201100000028  0.0000
  O      O         0.754032299999949    0.503296699999964    0.557306300000050  0.0000
  O      O         0.795494400000052    0.884398600000054    0.366930199999956  0.0000
  Si     Si        0.197799799999984    0.690222400000039    0.501941999999985  0.0000
  Si     Si        0.326286800000048    0.563790400000016    0.509611500000005  0.0000
  Si     Si        0.029683299999988    0.615498200000047    0.358327400000007  0.0000
  Si     Si        0.384776999999985    0.878439699999944    0.499932199999989  0.0000
  Si     Si        0.225160599999981    0.807528100000013    0.351654700000040  0.0000
  Si     Si        0.117430199999944    0.548667199999954    0.224029699999960  0.0000
  Si     Si        0.218841799999950    0.428521899999964    0.374853300000041  0.0000
  Si     Si        0.178867200000013    0.806150600000024    0.647436800000037  0.0000
  Si     Si        0.242525900000032    0.677713300000050    0.214806999999951  0.0000
  Si     Si        0.410516400000006    0.627669699999956    0.367208399999981  0.0000
  Si     Si        0.917992300000037    0.747801999999979    0.235792899999979  0.0000
  Si     Si        0.048619199999962    0.873574299999973    0.232865800000013  0.0000
  Si     Si        0.036832399999980    0.005201299999953    0.361435899999947  0.0000
  Si     Si        0.131356699999969    0.707577000000015    0.999265100000002  0.0000
  O      O         0.394782400000054    0.538427100000035    0.616961700000047  0.0000
  O      O         0.996637899999996    0.552422600000000    0.414477400000010  0.0000
  O      O         0.201273900000047    0.727197899999965    0.605521400000043  0.0000
  O      O         0.557696999999962    0.705727000000024    0.610803499999975  0.0000
  O      O         0.302800499999989    0.865261600000053    0.399012599999992  0.0000
  O      O         0.064471400000002    0.532670700000040    0.105672300000037  0.0000
  O      O         0.142914300000029    0.858723499999996    0.308266499999945  0.0000
  O      O         0.866781700000047    0.726427100000024    0.119020999999975  0.0000
  O      O         0.215745999999967    0.686790800000040    0.094852500000002  0.0000
  O      O         0.038303799999994    0.883746299999984    0.118229100000008  0.0000
  O      O         0.363858899999968    0.890725999999972    0.597627600000010  0.0000
  O      O         0.184218600000008    0.616565000000037    0.240211799999997  0.0000
  O      O         0.162656299999981    0.469797100000051    0.271074699999986  0.0000
  O      O         0.019766099999970    0.956265700000017    0.444784099999993  0.0000
  O      O         0.160737100000006    0.791423699999996    0.746781700000042  0.0000
  O      O         0.429577999999992    0.953209900000047    0.479734699999995  0.0000
  O      O         0.092957200000001    0.781922600000030    0.030586299999982  0.0000
  O      O         0.994549399999983    0.802796599999965    0.244902400000001  0.0000
  O      O         0.443405399999961    0.803990500000054    0.522598900000048  0.0000
  O      O         0.225809199999958    0.753411400000005    0.441300599999977  0.0000
  O      O         0.233407499999998    0.758684900000048    0.262196499999959  0.0000
  O      O         0.056972100000053    0.573698499999978    0.277655900000013  0.0000
  O      O         0.066698100000053    0.637409700000035    0.973115000000007  0.0000
  O      O         0.105094099999974    0.662156299999992    0.438770599999998  0.0000
  O      O         0.455338200000028    0.554111400000011    0.344881399999963  0.0000
  O      O         0.260182600000007    0.618283799999972    0.528983400000016  0.0000
  O      O         0.953876000000037    0.672366399999987    0.301773099999991  0.0000
  O      O         0.371673299999998    0.608598400000005    0.448252900000057  0.0000
  O      O         0.338260099999957    0.651093999999944    0.261523900000043  0.0000
  O      O         0.100236099999961    0.844352200000003    0.559876600000052  0.0000
  O      O         0.020233400000052    0.953841399999988    0.263549499999954  0.0000
  O      O         0.281103199999961    0.488655200000039    0.450707800000032  0.0000
  O      O         0.256506400000035    0.863520600000015    0.680027300000006  0.0000
  Si     Si        0.511752300000012    0.388923200000022    0.508173199999987  0.0000
  Si     Si        0.327493099999970    0.190222400000039    0.521887999999990  0.0000
  Si     Si        0.511961199999973    0.004844599999956    0.508417699999995  0.0000
  Si     Si        0.199006100000020    0.063790400000016    0.514218600000049  0.0000
  Si     Si        0.495609599999966    0.115498200000047    0.665502599999968  0.0000
  Si     Si        0.140516000000048    0.378439800000024    0.523897799999986  0.0000
  Si     Si        0.300132400000052    0.307528199999979    0.672175300000049  0.0000
  Si     Si        0.407862799999975    0.048667199999954    0.799800300000015  0.0000
  Si     Si        0.010890099999983    0.253212200000007    0.515484300000026  0.0000
  Si     Si        0.306451100000004    0.928521899999964    0.648976700000048  0.0000
  Si     Si        0.346425800000020    0.306150600000024    0.376393200000052  0.0000
  Si     Si        0.282767100000001    0.177713300000050    0.809023099999990  0.0000
  Si     Si        0.114776499999948    0.127669699999956    0.656621699999960  0.0000
  Si     Si        0.607300600000030    0.247801999999979    0.788037099999997  0.0000
  Si     Si        0.476673699999992    0.373574200000007    0.790964199999962  0.0000
  Si     Si        0.488460499999974    0.505201299999953    0.662394199999994  0.0000
  Si     Si        0.393936299999950    0.207577000000015    0.024564899999973  0.0000
  Si     Si        0.516235299999948    0.085279799999967    0.012345600000003  0.0000
  Si     Si        0.511243499999978    0.334812899999974    0.007189000000039  0.0000
  O      O         0.130510599999980    0.038427100000035    0.406868400000008  0.0000
  O      O         0.528655100000037    0.052422600000000    0.609352599999966  0.0000
  O      O         0.324019000000021    0.227197899999965    0.418308700000011  0.0000
  O      O         0.967595899999992    0.205727000000024    0.413026599999966  0.0000
  O      O         0.222492500000044    0.365261600000053    0.624817499999949  0.0000
  O      O         0.460821499999952    0.032670700000040    0.918157800000017  0.0000
  O      O         0.382378700000004    0.358723499999996    0.715563500000030  0.0000
  O      O         0.658511200000021    0.226427100000024    0.904809099999966  0.0000
  O      O         0.309546899999987    0.186790800000040    0.928977499999974  0.0000
  O      O         0.486989099999960    0.383746299999984    0.905600899999968  0.0000
  O      O         0.161434099999951    0.390725999999972    0.426202500000045  0.0000
  O      O         0.341074299999946    0.116565000000037    0.783618199999978  0.0000
  O      O         0.362636599999973    0.969797100000051    0.752755399999955  0.0000
  O      O         0.505526799999984    0.456265700000017    0.579045899999983  0.0000
  O      O         0.364555799999948    0.291423699999996    0.277048300000047  0.0000
  O      O         0.095714899999962    0.453209900000047    0.544095299999981  0.0000
  O      O         0.432335699999953    0.281922600000030    0.993243799999959  0.0000
  O      O         0.530743499999971    0.302796599999965    0.778927700000054  0.0000
  O      O         0.081887599999959    0.303990500000054    0.501231100000041  0.0000
  O      O         0.299483699999996    0.253411400000005    0.582529499999964  0.0000
  O      O         0.291885399999956    0.258684799999969    0.761633500000016  0.0000
  O      O         0.468320899999981    0.073698499999978    0.746174200000041  0.0000
  O      O         0.458594800000014    0.137409800000000    0.050714999999968  0.0000
  O      O         0.420198799999980    0.162156299999992    0.585059500000057  0.0000
  O      O         0.069954700000039    0.054111400000011    0.678948600000012  0.0000
  O      O         0.265110299999947    0.118283799999972    0.494846700000039  0.0000
  O      O         0.571416999999997    0.172366399999987    0.722056899999984  0.0000
  O      O         0.153619599999956    0.108598400000005    0.575577199999998  0.0000
  O      O         0.187032799999997    0.151093899999978    0.762306100000046  0.0000
  O      O         0.425056799999993    0.344352200000003    0.463953500000002  0.0000
  O      O         0.505059500000016    0.453841399999988    0.760280599999987  0.0000
  O      O         0.244189699999993    0.988655300000005    0.573122300000023  0.0000
  O      O         0.268786500000033    0.363520500000050    0.343802800000049  0.0000
  Si     Si        0.705081700000051    0.198238999999944    0.497535399999947  0.0000
  Si     Si        0.835809400000016    0.072509800000034    0.510175600000025  0.0000
  Si     Si        0.539746899999955    0.117169900000022    0.362942999999973  0.0000
  Si     Si        0.883649799999944    0.379502300000013    0.507309500000019  0.0000
  Si     Si        0.722988399999963    0.317203299999960    0.343834300000026  0.0000
  Si     Si        0.623486699999944    0.052486300000055    0.226729299999988  0.0000
  Si     Si        0.728066699999999    0.938350300000025    0.383463300000017  0.0000
  Si     Si        0.674545899999998    0.308642100000043    0.641819299999952  0.0000
  Si     Si        0.744954600000028    0.183044200000040    0.216212899999960  0.0000
  Si     Si        0.915370100000018    0.130675300000007    0.361012599999981  0.0000
  Si     Si        0.430009300000052    0.253674899999965    0.237579299999993  0.0000
  Si     Si        0.549721800000043    0.385599999999954    0.218720999999960  0.0000
  Si     Si        0.534511500000008    0.502289700000006    0.357753799999955  0.0000
  Si     Si        0.635147500000016    0.210423999999989    0.000249899999972  0.0000
  O      O         0.904759499999955    0.049655000000030    0.618663500000025  0.0000
  O      O         0.494880299999977    0.059581399999956    0.412805800000001  0.0000
  O      O         0.710093000000029    0.236695700000041    0.600974100000030  0.0000
  O      O         0.049906500000020    0.197200100000032    0.611792000000037  0.0000
  O      O         0.803771099999949    0.368399700000055    0.403922100000045  0.0000
  O      O         0.573511299999950    0.034822400000053    0.108163099999956  0.0000
  O      O         0.647111699999982    0.373583299999950    0.285502299999962  0.0000
  O      O         0.376693899999964    0.222857999999974    0.124793599999975  0.0000
  O      O         0.718190400000026    0.190764199999990    0.096796799999993  0.0000
  O      O         0.532213999999954    0.392291799999953    0.101021199999991  0.0000
  O      O         0.857165399999985    0.390013599999975    0.601533700000005  0.0000
  O      O         0.684104899999966    0.125689699999953    0.243411499999979  0.0000
  O      O         0.675581899999997    0.976671900000042    0.275888699999996  0.0000
  O      O         0.537448199999972    0.427032100000019    0.423741800000016  0.0000
  O      O         0.672627600000055    0.287769300000036    0.749549600000023  0.0000
  O      O         0.931336900000019    0.453881199999955    0.492390500000056  0.0000
  O      O         0.593047599999977    0.283866300000000    0.028463399999964  0.0000
  O      O         0.498532299999965    0.313970499999982    0.235438599999952  0.0000
  O      O         0.941966800000046    0.304487999999992    0.534402600000021  0.0000
  O      O         0.700064099999963    0.266105100000004    0.421291300000007  0.0000
  O      O         0.741471199999978    0.264942799999972    0.264020899999991  0.0000
  O      O         0.559376400000019    0.071908399999984    0.278111500000023  0.0000
  O      O         0.571442299999944    0.139226000000008    0.972160300000041  0.0000
  O      O         0.624342299999967    0.145064800000000    0.451606699999957  0.0000
  O      O         0.972118799999976    0.074833499999954    0.326950600000032  0.0000
  O      O         0.788459999999986    0.148569199999997    0.521721200000002  0.0000
  O      O         0.477634299999977    0.186641300000019    0.313958899999989  0.0000
  O      O         0.883711199999993    0.087895499999945    0.437601500000028  0.0000
  O      O         0.838565199999948    0.152351800000019    0.259449099999983  0.0000
  O      O         0.580451100000005    0.325591199999963    0.565367599999945  0.0000
  O      O         0.523147300000005    0.467574199999945    0.249628899999948  0.0000
  O      O         0.771260600000005    0.003296699999964    0.466523700000039  0.0000
  O      O         0.729798599999981    0.384398600000054    0.656899800000019  0.0000
