data_ReferenceDataBase/COE-11
_audit_creation_method             Generated by GULP
_audit_author_name                 Salvador R. G. Balestra
_symmetry_space_group_name_H-M     'P 1             '
_symmetry_Int_Tables_number        1

loop_
_symmetry_equiv_pos_site_id
_symmetry_equiv_pos_as_xyz
   1     +x,+y,+z                
_cell_length_a                       17.4146
_cell_length_b                       17.3906
_cell_length_c                       14.4450
_cell_angle_alpha                   90.0000
_cell_angle_beta                   112.9737
_cell_angle_gamma                   90.0000

loop_
_atom_site_label
_atom_site_type_symbol
_atom_site_fract_x
_atom_site_fract_y
_atom_site_fract_z
_atom_site_charge
  Si     Si        0.013540622533655    0.888923191837736    0.515656800760721  0.0000
  Si     Si        0.820211533503667    0.698239584197576    0.526293268404889  0.0000
  Si     Si        0.013334251389306    0.504843469683498    0.515409003779856  0.0000
  Si     Si        0.689483963139878    0.572509569076531    0.513651727971854  0.0000
  Si     Si        0.985547306806443    0.617170514366325    0.660882260414074  0.0000
  Si     Si        0.641644438771693    0.879503777607177    0.516519350905037  0.0000
  Si     Si        0.802304319279064    0.817203106724494    0.679995307907045  0.0000
  Si     Si        0.901809691338115    0.552487490919404    0.797098953334825  0.0000
  Si     Si        0.514407614292257    0.753211347040118    0.508347158802302  0.0000
  Si     Si        0.797227127241635    0.438351918683536    0.640365812303735  0.0000
  Si     Si        0.850747513183397    0.808643015820827    0.382009964786185  0.0000
  Si     Si        0.780341164831510    0.683044086353753    0.807618262939118  0.0000
  Si     Si        0.609926259076974    0.630674461555572    0.662817844766773  0.0000
  Si     Si        0.095283667617113    0.753675069194378    0.786249202837764  0.0000
  Si     Si        0.975571088883937    0.885599027868706    0.805109254017526  0.0000
  Si     Si        0.990782838530609    0.002289240364322    0.666077783437933  0.0000
  Si     Si        0.890147997795585    0.710421542587695    0.023581249846209  0.0000
  Si     Si        0.009059887773348    0.585278830486254    0.011482896724547  0.0000
  Si     Si        0.014052084710009    0.834812001963062    0.016641904669233  0.0000
  O      O         0.620534152759499    0.549655264094912    0.405163543420416  0.0000
  O      O         0.030414543491089    0.559584585728076    0.611016930885672  0.0000
  O      O         0.815198473415124    0.736697376321672    0.422854220437260  0.0000
  O      O         0.475394141304451    0.697196656944807    0.412041958640911  0.0000
  O      O         0.721523407264231    0.868400945917749    0.619906228124846  0.0000
  O      O         0.951787238466656    0.534821004547128    0.915664132405469  0.0000
  O      O         0.878181275152719    0.873582453115764    0.738328687900710  0.0000
  O      O         0.148600032719817    0.722858003283983    0.899034679001876  0.0000
  O      O         0.807103730816605    0.690765643893564    0.927034100397665  0.0000
  O      O         0.993079127404083    0.892290582484518    0.922809146287666  0.0000
  O      O         0.668127930894631    0.890015537859732    0.422294165406171  0.0000
  O      O         0.841196455752496    0.625694036667957    0.780422637080663  0.0000
  O      O         0.849709641613421    0.476675514492843    0.747939630786159  0.0000
  O      O         0.987846090920864    0.927031671634695    0.600089798669741  0.0000
  O      O         0.852667412643997    0.787770014573537    0.274280229211400  0.0000
  O      O         0.593957453117989    0.953882308616499    0.531439821533040  0.0000
  O      O         0.932250465646853    0.783862151577517    0.995368364016211  0.0000
  O      O         0.026759797711549    0.813969199600676    0.788390933189316  0.0000
  O      O         0.583327746942321    0.804489344726895    0.489425478290167  0.0000
  O      O         0.825229542868152    0.766104287745845    0.602539469081709  0.0000
  O      O         0.783818223577370    0.764943022197425    0.759806985871722  0.0000
  O      O         0.965917930888202    0.571906359547401    0.745712189355325  0.0000
  O      O         0.953849127515130    0.639220778920772    0.051667718961176  0.0000
  O      O         0.900951725085242    0.645066047185174    0.572219782412402  0.0000
  O      O         0.553173854532022    0.574835034315430    0.696877204498103  0.0000
  O      O         0.736833770238440    0.648569214332288    0.502107642611475  0.0000
  O      O         0.047659932991126    0.686641435621939    0.709868886961071  0.0000
  O      O         0.641582090051035    0.587894211131735    0.586226310922433  0.0000
  O      O         0.686733115496061    0.652345329234911    0.764382090450986  0.0000
  O      O         0.944841844170009    0.825591008649289    0.458463855354389  0.0000
  O      O         0.002146026572506    0.967573290539839    0.774202113126768  0.0000
  O      O         0.754032609438462    0.503296483122161    0.557302695207088  0.0000
  O      O         0.795495577303491    0.884400012275857    0.366928435213180  0.0000
  Si     Si        0.197801985906226    0.690223295319317    0.501943966904225  0.0000
  Si     Si        0.326287988684556    0.563791619812204    0.509609293491822  0.0000
  Si     Si        0.029686937887594    0.615498725052834    0.358327006836974  0.0000
  Si     Si        0.384778019259934    0.878435933470402    0.499928026644019  0.0000
  Si     Si        0.225160602821846    0.807526394076163    0.351651598055621  0.0000
  Si     Si        0.117433513885735    0.548665869320813    0.224028048987105  0.0000
  Si     Si        0.218841774874259    0.428521178483128    0.374853762385348  0.0000
  Si     Si        0.178867713631977    0.806152648538103    0.647436333045359  0.0000
  Si     Si        0.242529824817344    0.677710859384225    0.214805195759067  0.0000
  Si     Si        0.410520249033629    0.627670109123520    0.367207321941697  0.0000
  Si     Si        0.917995437805420    0.747801803586373    0.235795041761694  0.0000
  Si     Si        0.048621004132411    0.873574587541490    0.232866394254290  0.0000
  Si     Si        0.036833293809942    0.005201280708971    0.361436701730121  0.0000
  Si     Si        0.131359001112949    0.707577867669593    0.999264643601348  0.0000
  O      O         0.394783597222171    0.538425084514027    0.616957569831007  0.0000
  O      O         0.996643611199061    0.552416240078860    0.414470564364059  0.0000
  O      O         0.201276574430871    0.727200086227556    0.605523006501315  0.0000
  O      O         0.557704902378040    0.705729250949942    0.610807225391987  0.0000
  O      O         0.302804288649832    0.865256001116971    0.399005841460606  0.0000
  O      O         0.064475411647539    0.532670225540917    0.105670198039133  0.0000
  O      O         0.142917061792445    0.858725573490262    0.308265176469178  0.0000
  O      O         0.866786017461910    0.726425443777130    0.119023478919983  0.0000
  O      O         0.215748494004832    0.686789109532910    0.094850337633444  0.0000
  O      O         0.038303727591281    0.883746287450645    0.118228855367550  0.0000
  O      O         0.363855397579921    0.890720781500510    0.597620460260181  0.0000
  O      O         0.184231673195563    0.616554231700782    0.240211695095810  0.0000
  O      O         0.162648303962658    0.469792409625970    0.271075737575560  0.0000
  O      O         0.019764036688259    0.956266144079403    0.444783316331876  0.0000
  O      O         0.160736487564245    0.791426108657404    0.746780647230684  0.0000
  O      O         0.429579162827097    0.953206611842226    0.479731692943340  0.0000
  O      O         0.092962240929672    0.781924713185366    0.030587466024455  0.0000
  O      O         0.994553163819192    0.802796008241022    0.244905390713650  0.0000
  O      O         0.443407853724436    0.803987493251766    0.522598620706862  0.0000
  O      O         0.225807572886436    0.753412591646835    0.441299311423353  0.0000
  O      O         0.233400895520800    0.758679980693058    0.262192110691344  0.0000
  O      O         0.056976271247968    0.573709964357203    0.277649282469348  0.0000
  O      O         0.066698246147131    0.637412709747560    0.973114987288731  0.0000
  O      O         0.105096988531638    0.662153323546451    0.438776401485687  0.0000
  O      O         0.455338744683268    0.554110511547739    0.344877477949107  0.0000
  O      O         0.260188083703675    0.618287251773900    0.528986613615972  0.0000
  O      O         0.953878793921590    0.672367641436711    0.301778905954850  0.0000
  O      O         0.371674201851408    0.608598459159754    0.448249141429655  0.0000
  O      O         0.338266890222205    0.651100718668773    0.261523636421325  0.0000
  O      O         0.100236591829500    0.844352742805366    0.559874353187542  0.0000
  O      O         0.020234660059137    0.953841383496219    0.263550309038603  0.0000
  O      O         0.281099125670980    0.488659119418037    0.450703776306318  0.0000
  O      O         0.256505506682259    0.863524236158616    0.680027151384650  0.0000
  Si     Si        0.511754953934706    0.388923190825068    0.508171680605410  0.0000
  Si     Si        0.327493591990994    0.190223307054028    0.521884550291424  0.0000
  Si     Si        0.511961292918468    0.004843475907327    0.508419503004659  0.0000
  Si     Si        0.199007595662478    0.063791630294398    0.514219219437197  0.0000
  Si     Si        0.495608620415645    0.115498720497911    0.665501517105074  0.0000
  Si     Si        0.140517530957633    0.378435935122896    0.523900476890263  0.0000
  Si     Si        0.300134956137236    0.307526393443407    0.672176895399408  0.0000
  Si     Si        0.407862050443552    0.048665858449493    0.799800485196904  0.0000
  Si     Si        0.010887930897991    0.253211344794631    0.515481328031371  0.0000
  Si     Si        0.306453800948995    0.928521179266493    0.648974759169774  0.0000
  Si     Si        0.346427859356998    0.306152654470006    0.376392172077624  0.0000
  Si     Si        0.282765738021603    0.177710855625421    0.809023314634308  0.0000
  Si     Si        0.114775322681048    0.127670111742954    0.656621174498087  0.0000
  Si     Si        0.607300112687110    0.247801788451945    0.788033448348879  0.0000
  Si     Si        0.476674548120349    0.373574569092396    0.790962085441549  0.0000
  Si     Si        0.488462298302736    0.505201264028314    0.662391792790759  0.0000
  Si     Si        0.393936556255513    0.207577874465062    0.024563863624428  0.0000
  Si     Si        0.516235675584214    0.085278829666654    0.012345629566639  0.0000
  Si     Si        0.511243469306095    0.334812005152613    0.007186584564447  0.0000
  O      O         0.130511994671433    0.038425099748612    0.406870937974724  0.0000
  O      O         0.528651911095283    0.052416222207935    0.609357949262309  0.0000
  O      O         0.324019021644993    0.227200084432547    0.418305509314274  0.0000
  O      O         0.967590648367631    0.205729262016715    0.413021255470452  0.0000
  O      O         0.222491250336734    0.365255980449075    0.624822669103787  0.0000
  O      O         0.460820157853475    0.032670216626163    0.918158337755955  0.0000
  O      O         0.382378478295418    0.358725595298401    0.715563309220391  0.0000
  O      O         0.658509534787528    0.226425439606423    0.904805017057784  0.0000
  O      O         0.309547060546786    0.186789122034093    0.928978169460858  0.0000
  O      O         0.486991826960804    0.383746279102096    0.905599621541213  0.0000
  O      O         0.161440174757803    0.390720783654658    0.426208060643541  0.0000
  O      O         0.341063868047010    0.116554196490781    0.783616838288300  0.0000
  O      O         0.362647281553150    0.969792396017741    0.752752787290073  0.0000
  O      O         0.505531565492781    0.456266146644752    0.579045172702334  0.0000
  O      O         0.364559078666652    0.291426122711048    0.277047854001670  0.0000
  O      O         0.095716392655664    0.453206622316217    0.544096792256871  0.0000
  O      O         0.432333313381939    0.281924723145333    0.993241041403531  0.0000
  O      O         0.530742357410853    0.302795962832773    0.778923081851907  0.0000
  O      O         0.081887680409310    0.303987508257698    0.501229868637233  0.0000
  O      O         0.299487995165042    0.253412611285193    0.582529176279126  0.0000
  O      O         0.291894705136492    0.258679957654996    0.761636386902989  0.0000
  O      O         0.468319292073606    0.073709980298610    0.746179261693094  0.0000
  O      O         0.458597307847878    0.137412714270314    0.050713514211441  0.0000
  O      O         0.420198579613755    0.162153340469380    0.585052146400759  0.0000
  O      O         0.069956848666216    0.054110499035457    0.678951022538115  0.0000
  O      O         0.265107501234587    0.118287265629343    0.494841909692886  0.0000
  O      O         0.571416787542758    0.172367618270043    0.722049595251028  0.0000
  O      O         0.153621381928277    0.108598471094416    0.575579364979409  0.0000
  O      O         0.187028666698184    0.151100743332312    0.762304857328204  0.0000
  O      O         0.425058975045788    0.344352758607514    0.463954146613413  0.0000
  O      O         0.505060936095159    0.453841347762018    0.760278175027806  0.0000
  O      O         0.244196462242378    0.988659132456759    0.573124745412018  0.0000
  O      O         0.268790054381088    0.363524229453728    0.343801360663462  0.0000
  Si     Si        0.705084035433477    0.198239584834302    0.497535254949631  0.0000
  Si     Si        0.835811618319241    0.072509572122753    0.510176784150251  0.0000
  Si     Si        0.539748264981582    0.117170534040408    0.362946279021819  0.0000
  Si     Si        0.883651112420308    0.379503765584725    0.507309169607171  0.0000
  Si     Si        0.722991240321948    0.317203099209791    0.343833188676631  0.0000
  Si     Si        0.623485881557323    0.052487505042753    0.226729585299889  0.0000
  Si     Si        0.728068465721758    0.938351914095874    0.383462720981276  0.0000
  Si     Si        0.674548066039392    0.308643024412882    0.641818538552129  0.0000
  Si     Si        0.744954406926078    0.183044093723037    0.216210243489914  0.0000
  Si     Si        0.915369310237339    0.130674463951865    0.361010650301099  0.0000
  Si     Si        0.430011900447126    0.253675086371137    0.237579299655396  0.0000
  Si     Si        0.549724475803085    0.385599041315520    0.218719224262292  0.0000
  Si     Si        0.534512746897021    0.502289245735004    0.357750707308474  0.0000
  Si     Si        0.635147559308122    0.210421541949334    0.000247253675292  0.0000
  O      O         0.904761442248071    0.049655275987308    0.618664970813007  0.0000
  O      O         0.494880998728580    0.059584611916484    0.412811586965010  0.0000
  O      O         0.710097136175033    0.236697400388594    0.600974309046090  0.0000
  O      O         0.049901411052590    0.197196642920038    0.611786519797923  0.0000
  O      O         0.803772129766140    0.368400950012280    0.403922306669827  0.0000
  O      O         0.573508320432173    0.034821012223768    0.108164410452786  0.0000
  O      O         0.647114286575368    0.373582439613151    0.285499775106929  0.0000
  O      O         0.376695534605322    0.222858004834333    0.124793835909847  0.0000
  O      O         0.718191833053528    0.190765658908853    0.096794404371023  0.0000
  O      O         0.532216430041382    0.392290596780435    0.101019328164748  0.0000
  O      O         0.857167649224224    0.390015521241679    0.601534371310226  0.0000
  O      O         0.684099104095196    0.125694058923677    0.243405872690314  0.0000
  O      O         0.675585939361473    0.976675531178357    0.275888915781482  0.0000
  O      O         0.537449475274984    0.427031664754397    0.423738669220453  0.0000
  O      O         0.672628129065306    0.287770029076124    0.749548262026588  0.0000
  O      O         0.931338101260981    0.453882290861567    0.492388685610436  0.0000
  O      O         0.593045085566948    0.283862147880674    0.028460132134956  0.0000
  O      O         0.498535746356663    0.313969229324173    0.235437540699267  0.0000
  O      O         0.941967790952246    0.304489323699224    0.534403018666773  0.0000
  O      O         0.700065984141442    0.266104258522929    0.421288988550752  0.0000
  O      O         0.741477385816238    0.264943029219004    0.264021538930641  0.0000
  O      O         0.559377654004836    0.071906379843337    0.278116363271388  0.0000
  O      O         0.571446440809966    0.139220771658598    0.972160804026704  0.0000
  O      O         0.624343836153177    0.145066044761107    0.451608796890268  0.0000
  O      O         0.972121733371656    0.074835048622338    0.326951307693037  0.0000
  O      O         0.788461796427648    0.148569209849629    0.521720858441147  0.0000
  O      O         0.477635658925411    0.186641469518254    0.313959636143576  0.0000
  O      O         0.883713484190311    0.087894214498918    0.437602191308308  0.0000
  O      O         0.838562449010940    0.152345314004190    0.259446400036945  0.0000
  O      O         0.580453734395369    0.325591000857178    0.565364612454715  0.0000
  O      O         0.523149565070379    0.467573312085723    0.249626373969551  0.0000
  O      O         0.771262990087610    0.003296468140927    0.466525842951920  0.0000
  O      O         0.729799999999955    0.384400000000028    0.656899999999951  0.0000
