data_ReferenceDataBase/ECNU-23a
_audit_creation_method             Generated by GULP
_audit_author_name                 Salvador R. G. Balestra
_symmetry_space_group_name_H-M     'P 1             '
_symmetry_Int_Tables_number        1

loop_
_symmetry_equiv_pos_site_id
_symmetry_equiv_pos_as_xyz
   1     +x,+y,+z                
_cell_length_a                       21.6905
_cell_length_b                       13.5375
_cell_length_c                       19.9453
_cell_angle_alpha                   89.6587
_cell_angle_beta                    90.0251
_cell_angle_gamma                   89.5510

loop_
_atom_site_label
_atom_site_type_symbol
_atom_site_fract_x
_atom_site_fract_y
_atom_site_fract_z
_atom_site_charge
  O      O         0.759006360461267    0.983990242997169    0.069469371743909  0.0000
  O      O         0.239496978692386    0.982139179390547    0.076530260905914  0.0000
  O      O         0.273358878265449    0.005701081344827    0.451563135497926  0.0000
  O      O         0.721157786998839    0.002683004044366    0.445296065687084  0.0000
  O      O         0.258288385403054    0.480504282745808    0.076089741981371  0.0000
  O      O         0.736618016256967    0.520677682001130    0.067754965740608  0.0000
  O      O         0.771364277729343    0.489674009441612    0.443565649023667  0.0000
  O      O         0.223710388143830    0.506006836088217    0.451299430544082  0.0000
  O      O         0.676779341217823    0.608222088676071    0.249442282667637  0.0000
  O      O         0.327803905499860    0.399508778431586    0.236835868777475  0.0000
  O      O         0.312299855984370    0.591572237306260    0.234169019173381  0.0000
  O      O         0.677239855634308    0.420182421866305    0.213530771236387  0.0000
  O      O         0.179747905077612    0.108437503561662    0.226440832166900  0.0000
  O      O         0.831067322566273    0.907539268735036    0.231239559447580  0.0000
  O      O         0.816272125608358    0.099876683627681    0.239594245534544  0.0000
  O      O         0.173458519574881    0.917989589910034    0.247502469149476  0.0000
  O      O         0.648711782340331    0.922657259894216    0.107191970668978  0.0000
  O      O         0.323028863271765    0.108323244936887    0.110788551782668  0.0000
  O      O         0.317005563991815    0.893378799273111    0.356745425872953  0.0000
  O      O         0.680390309165900    0.120709337829806    0.348635852017793  0.0000
  O      O         0.144331411272927    0.432317842474869    0.108082670729627  0.0000
  O      O         0.849293866760069    0.579172319106610    0.097790271711841  0.0000
  O      O         0.850926768618859    0.417348358126842    0.362123262296743  0.0000
  O      O         0.173889804344660    0.603465691459936    0.351246375398047  0.0000
  O      O         0.558502523862931    0.803125238295650    0.125809120039256  0.0000
  O      O         0.442847835385830    0.136275520635367    0.104357391499273  0.0000
  O      O         0.433937125368877    0.839944082657635    0.352493769197672  0.0000
  O      O         0.560596766741103    0.151446881721497    0.339049162530362  0.0000
  O      O         0.046101087892505    0.334685918203428    0.097482237799616  0.0000
  O      O         0.946211918027167    0.682791570413249    0.122449848035380  0.0000
  O      O         0.944473901800761    0.308053614701556    0.333507370206781  0.0000
  O      O         0.055749137377978    0.643578389061179    0.353503307463581  0.0000
  O      O         0.640898808197470    0.768746427430327    0.029663061121838  0.0000
  O      O         0.366856715129114    0.232818553010279    0.024776621640551  0.0000
  O      O         0.347725520789416    0.723938072475840    0.405571217487719  0.0000
  O      O         0.636231644555380    0.280876677573626    0.398828596788842  0.0000
  O      O         0.143517553539780    0.282653700925040    0.025597695717996  0.0000
  O      O         0.867974019314055    0.738894551867056    0.027341650493327  0.0000
  O      O         0.847792579225446    0.229256982154562    0.395801378286049  0.0000
  O      O         0.138005710874128    0.765374054751912    0.408173272488420  0.0000
  O      O         0.369222462936314    0.270687464967163    0.154074902482096  0.0000
  O      O         0.671684780089806    0.741266604723046    0.152758687940104  0.0000
  O      O         0.633635274321582    0.261309231597548    0.271372142766079  0.0000
  O      O         0.356528608503467    0.755591086144461    0.276389557312819  0.0000
  O      O         0.835819928186413    0.758086713402496    0.149270981007911  0.0000
  O      O         0.139068045342129    0.248604245283259    0.154983460078278  0.0000
  O      O         0.128083517790039    0.747129910680229    0.279541035949116  0.0000
  O      O         0.840979464333944    0.284323823196835    0.269881612310037  0.0000
  O      O         0.493245350159166    0.849170374848033    0.234467244058135  0.0000
  O      O         0.505530861943534    0.125218822809750    0.219974684371811  0.0000
  O      O         0.998168130865860    0.353277185304433    0.218935037855397  0.0000
  O      O         0.999780789664670    0.627096064318450    0.235267780127606  0.0000
  O      O         0.275986903977308    0.992853413954904    0.202012934627253  0.0000
  O      O         0.725294858765945    0.986142438269164    0.196104320426919  0.0000
  O      O         0.758590846834570    0.981196860426348    0.322077377878076  0.0000
  O      O         0.240268015805291    0.031611379837132    0.325713846730847  0.0000
  O      O         0.773672957388372    0.533311877394307    0.193327092589938  0.0000
  O      O         0.220744210798359    0.476947024205238    0.201466833746819  0.0000
  O      O         0.258891926059049    0.477917063223070    0.326889251868718  0.0000
  O      O         0.741488395987433    0.472402127562297    0.315972879791775  0.0000
  O      O         0.321270092783120    0.597284666479417    0.496714971080213  0.0000
  O      O         0.670322307413228    0.407677783526365    0.488260730244246  0.0000
  O      O         0.674792346086349    0.602213058384924    0.472398994764209  0.0000
  O      O         0.325102918289273    0.403979597533074    0.481485292226203  0.0000
  O      O         0.818231019138121    0.100814520576232    0.485139197286919  0.0000
  O      O         0.172391042627619    0.906963675780299    0.483065969634437  0.0000
  O      O         0.176251358815410    0.101172872975027    0.496375981886039  0.0000
  O      O         0.825376981535873    0.907390763175083    0.476577764753671  0.0000
  O      O         0.350368015093829    0.920816633832348    0.115448421833002  0.0000
  O      O         0.677872052905431    0.109698428456825    0.112200575037822  0.0000
  O      O         0.644234945819818    0.938360707106207    0.356461527409160  0.0000
  O      O         0.351774202312432    0.077760232885821    0.368779751518108  0.0000
  O      O         0.815792114890630    0.395756002631515    0.115986255554955  0.0000
  O      O         0.181193990709720    0.614358946937089    0.120775508070115  0.0000
  O      O         0.149654782559207    0.416479325005614    0.371804073954155  0.0000
  O      O         0.819952614625772    0.603366520881248    0.351074656522062  0.0000
  O      O         0.442588995079681    0.804809876021212    0.119424000113477  0.0000
  O      O         0.558828656372858    0.139425553339507    0.102108730334731  0.0000
  O      O         0.549078677756375    0.830964207831764    0.351684772798391  0.0000
  O      O         0.445185894743320    0.179209956878147    0.328455054885117  0.0000
  O      O         0.931938181811940    0.342669598757273    0.107498056177424  0.0000
  O      O         0.062711179528925    0.657302969056709    0.123966532463411  0.0000
  O      O         0.060828547150512    0.305406314741447    0.327626606914469  0.0000
  O      O         0.939688920994846    0.633388069150941    0.352619238737495  0.0000
  O      O         0.330844014670741    0.734388574458822    0.150350304840376  0.0000
  O      O         0.634786371850820    0.280295681758182    0.143644556055486  0.0000
  O      O         0.639686895211690    0.788768354676072    0.273884792253718  0.0000
  O      O         0.336881577916442    0.211445948351474    0.275713383973874  0.0000
  O      O         0.844715443000579    0.219743927005965    0.146613690039420  0.0000
  O      O         0.148223369933806    0.789038493342401    0.155919871892346  0.0000
  O      O         0.172647227952007    0.286330732915236    0.280435886224131  0.0000
  O      O         0.871698731511247    0.735908693780410    0.273613757619786  0.0000
  O      O         0.634739481127217    0.226067539926955    0.019461395852054  0.0000
  O      O         0.355682347081494    0.777466617060387    0.028300389936800  0.0000
  O      O         0.355676022530755    0.266343863046885    0.398839118206007  0.0000
  O      O         0.654021147878343    0.755187237640877    0.401621320736189  0.0000
  O      O         0.134031065628993    0.736290419441991    0.033007290196755  0.0000
  O      O         0.852734621086706    0.277287375118923    0.020907810329993  0.0000
  O      O         0.858004063847216    0.764222054229797    0.402196601196180  0.0000
  O      O         0.150240412320698    0.227789200897603    0.402391120670481  0.0000
  O      O         0.502167086984092    0.975785633539611    0.134610441712174  0.0000
  O      O         0.491773625028405    0.998534991749181    0.318397888374169  0.0000
  O      O         0.992426204971896    0.502912221422635    0.134310787010740  0.0000
  O      O         0.003772559477035    0.477515946777824    0.319772104308522  0.0000
  O      O         0.743887885161019    0.255587217679457    0.463236402278041  0.0000
  O      O         0.244589049305017    0.748990242055338    0.476595177141044  0.0000
  O      O         0.253461552519533    0.248366517290057    0.472076378077210  0.0000
  O      O         0.754090214258827    0.750284310359405    0.477458285323308  0.0000
  O      O         0.253758724155015    0.257926501345227    0.189168368506341  0.0000
  O      O         0.754959241955760    0.758598205238428    0.247693342402355  0.0000
  O      O         0.738838842559614    0.247384672061399    0.209099874707202  0.0000
  O      O         0.241914080871038    0.754212865999621    0.239368128555319  0.0000
  Si     Si        0.712993268784341    0.504257813658866    0.492516797033229  0.0000
  Si     Si        0.282364247521944    0.497021832746872    0.000724619514551  0.0000
  Si     Si        0.215041482341299    0.999520369810632    0.001273058994187  0.0000
  Si     Si        0.781102704719818    0.999584083522978    0.493442838698655  0.0000
  Si     Si        0.717145115408085    0.508528982040318    0.243551739163590  0.0000
  Si     Si        0.279843236138044    0.488678648118400    0.250014092479017  0.0000
  Si     Si        0.217494336956866    0.012463122310059    0.250230610341483  0.0000
  Si     Si        0.782892404776433    0.995558187407100    0.246607809194719  0.0000
  Si     Si        0.682295552296492    0.720527185203734    0.471769353136732  0.0000
  Si     Si        0.323805383222243    0.286426640267895    0.470114605024546  0.0000
  Si     Si        0.315478421577007    0.712594810268173    0.477637319851078  0.0000
  Si     Si        0.673180227714922    0.292494311786677    0.468028731395473  0.0000
  Si     Si        0.182152218794492    0.215518159160912    0.474760610001035  0.0000
  Si     Si        0.824370039206888    0.788887486508612    0.471564991472241  0.0000
  Si     Si        0.813983106338025    0.216378537793257    0.466982589652077  0.0000
  Si     Si        0.174340244752084    0.788481682034505    0.475908429980826  0.0000
  Si     Si        0.629542630275331    0.808611675310877    0.104048209684661  0.0000
  Si     Si        0.376559250604437    0.186413263914366    0.097812690191151  0.0000
  Si     Si        0.364262774628837    0.803533810420198    0.348617495664260  0.0000
  Si     Si        0.626862941080291    0.202352623978702    0.339752198560527  0.0000
  Si     Si        0.119522788884716    0.322774568510194    0.095994661999291  0.0000
  Si     Si        0.875386844663352    0.689666206389899    0.099841472612647  0.0000
  Si     Si        0.870981747563991    0.307840518870718    0.340970298066559  0.0000
  Si     Si        0.123380072192267    0.689536583377653    0.349282476131193  0.0000
  Si     Si        0.308794648802162    0.709032590656297    0.224976439809223  0.0000
  Si     Si        0.673296614179652    0.301954597389247    0.210489010486652  0.0000
  Si     Si        0.686431419559981    0.723453429171996    0.230791018623908  0.0000
  Si     Si        0.321824342804621    0.285614627870650    0.215126505076886  0.0000
  Si     Si        0.808901208972880    0.213171839000698    0.217158816006946  0.0000
  Si     Si        0.174721632634818    0.802335092986434    0.230401393391715  0.0000
  Si     Si        0.186453941994879    0.225163668890239    0.213968780108615  0.0000
  Si     Si        0.823150428200890    0.789400240861418    0.224918620354229  0.0000
  Si     Si        0.370150329810156    0.808123325074315    0.104015649880479  0.0000
  Si     Si        0.625046173603299    0.188255612157961    0.094504306551183  0.0000
  Si     Si        0.622693323370910    0.826528459969954    0.347513306316078  0.0000
  Si     Si        0.372730838281766    0.184953522997463    0.343524855541370  0.0000
  Si     Si        0.862798799647400    0.309067995191757    0.097071460012577  0.0000
  Si     Si        0.129777095624378    0.698203714977968    0.108565317684034  0.0000
  Si     Si        0.132682728511947    0.308207597042737    0.345811652145857  0.0000
  Si     Si        0.873041706714638    0.683941799768570    0.345982196838261  0.0000
  Si     Si        0.499142305003519    0.860865669510222    0.154577509178175  0.0000
  Si     Si        0.502168355035151    0.093370498126467    0.142413579778487  0.0000
  Si     Si        0.492142591074325    0.880784936189314    0.312044521818394  0.0000
  Si     Si        0.500950534956434    0.112469602711810    0.300236207872119  0.0000
  Si     Si        0.992422311593761    0.385050124469459    0.141421115909993  0.0000
  Si     Si        0.000285685987220    0.616182546524933    0.155116327234345  0.0000
  Si     Si        0.001600052565809    0.363495398482465    0.299041661891156  0.0000
  Si     Si        0.999696386313331    0.595204037468816    0.313080887391839  0.0000
  Si     Si        0.702543641014469    0.999749994897057    0.120210784535479  0.0000
  Si     Si        0.297271003287154    0.001040157002528    0.125097282837735  0.0000
  Si     Si        0.296039386037725    0.002215886718282    0.375277345311045  0.0000
  Si     Si        0.700637493011280    0.010517214015378    0.368050600379815  0.0000
  Si     Si        0.201108026385149    0.501042802859622    0.125401513236108  0.0000
  Si     Si        0.794029108390803    0.507764790365365    0.117660452892820  0.0000
  Si     Si        0.796116604442052    0.495646302759282    0.368132133279428  0.0000
  Si     Si        0.201069190122121    0.500000154777557    0.375000174278846  0.0000
  O      O         0.759003839601779    0.984012293016555    0.569470715634300  0.0000
  O      O         0.239494001415242    0.982127901627710    0.576529242097646  0.0000
  O      O         0.273359863182596    0.005697963721272    0.951562980191758  0.0000
  O      O         0.721158291861416    0.002686549014421    0.945296637846950  0.0000
  O      O         0.258287470278541    0.480502391167190    0.576088941314150  0.0000
  O      O         0.736618949023026    0.520684731408504    0.567753927811712  0.0000
  O      O         0.771364397325604    0.489685075133081    0.943565885506584  0.0000
  O      O         0.223711012343383    0.505998292793223    0.951299633496353  0.0000
  O      O         0.676780825015243    0.608225241543594    0.749444100543966  0.0000
  O      O         0.327803561145265    0.399508891444807    0.736834558151108  0.0000
  O      O         0.312299910917608    0.591572449386566    0.734166562263425  0.0000
  O      O         0.677235505300638    0.420186309288405    0.713533431336428  0.0000
  O      O         0.179746158944263    0.108437384808763    0.726442344022343  0.0000
  O      O         0.831069936727097    0.907540186026528    0.731242534855183  0.0000
  O      O         0.816265206433085    0.099876499628199    0.739589979736088  0.0000
  O      O         0.173457920945897    0.917988875870052    0.747503932227386  0.0000
  O      O         0.648712524080551    0.922651314438049    0.607183085328385  0.0000
  O      O         0.323016898918777    0.108326745749881    0.610781845737734  0.0000
  O      O         0.317006029036480    0.893378915662555    0.856743221150223  0.0000
  O      O         0.680390207239285    0.120710350314195    0.848635414451583  0.0000
  O      O         0.144330523703113    0.432317195520760    0.608083084813894  0.0000
  O      O         0.849295374947909    0.579170746736222    0.597794808331558  0.0000
  O      O         0.850924174410844    0.417344493702890    0.862126377637763  0.0000
  O      O         0.173893791436193    0.603469982243262    0.851251255713544  0.0000
  O      O         0.558504167875626    0.803118405898604    0.625811517960110  0.0000
  O      O         0.442836700076016    0.136255164238893    0.604358792255233  0.0000
  O      O         0.433937572108187    0.839944006934941    0.852493469380173  0.0000
  O      O         0.560596410379669    0.151445921399414    0.839047114855613  0.0000
  O      O         0.046100131489215    0.334684588841484    0.597483419222580  0.0000
  O      O         0.946212877239943    0.682791243281923    0.622451098427732  0.0000
  O      O         0.944471191333991    0.308051742651277    0.833508188208130  0.0000
  O      O         0.055751992755963    0.643574436762034    0.853504473009528  0.0000
  O      O         0.640897249473050    0.768732925198101    0.529663667058722  0.0000
  O      O         0.366855635469574    0.232822290706663    0.524776783288305  0.0000
  O      O         0.347725913130384    0.723938656745332    0.905571060197494  0.0000
  O      O         0.636230397620275    0.280877987442456    0.898825719946045  0.0000
  O      O         0.143516156883662    0.282654315704458    0.525596880397755  0.0000
  O      O         0.867973845909868    0.738889339958740    0.527341728076093  0.0000
  O      O         0.847789015436358    0.229254142860524    0.895803289061446  0.0000
  O      O         0.138005706917917    0.765378113744777    0.908173703508049  0.0000
  O      O         0.369220860801174    0.270682429613091    0.654075690125697  0.0000
  O      O         0.671688366419315    0.741267102115464    0.652759340885187  0.0000
  O      O         0.633634339367927    0.261305644009306    0.771368896415063  0.0000
  O      O         0.356529777728750    0.755588982285458    0.776389545918638  0.0000
  O      O         0.835821581881553    0.758089402140350    0.649270772406025  0.0000
  O      O         0.139067762148213    0.248602162844732    0.654982134991609  0.0000
  O      O         0.128085221997403    0.747127492847843    0.779541453714573  0.0000
  O      O         0.840976160484137    0.284320207973943    0.769883702819897  0.0000
  O      O         0.493243611027555    0.849170879915729    0.734465845820225  0.0000
  O      O         0.505528492423685    0.125219382239367    0.719973015795346  0.0000
  O      O         0.998166775263836    0.353275107967091    0.718936334158731  0.0000
  O      O         0.999783238711860    0.627096067431202    0.735269000243676  0.0000
  O      O         0.275984794406628    0.992854128694672    0.702012182036613  0.0000
  O      O         0.725293704866512    0.986121843837064    0.696105132772710  0.0000
  O      O         0.758590260800603    0.981196753021721    0.822078024305051  0.0000
  O      O         0.240268099034201    0.031611745233656    0.825714094165215  0.0000
  O      O         0.773672314674499    0.533307160088218    0.693327552589360  0.0000
  O      O         0.220743653738742    0.476947857348050    0.701466325089459  0.0000
  O      O         0.258892258220564    0.477917992596795    0.826888236476995  0.0000
  O      O         0.741487435668090    0.472401961436933    0.815973887698609  0.0000
  O      O         0.321269865543827    0.597282831828826    0.996712515561140  0.0000
  O      O         0.670320947704282    0.407683880755799    0.988254571746733  0.0000
  O      O         0.674791393817722    0.602219438954992    0.972404708242089  0.0000
  O      O         0.325104899287346    0.403977819779394    0.981488174285969  0.0000
  O      O         0.818229038703276    0.100816691996329    0.985145862294364  0.0000
  O      O         0.172392552915097    0.906963557611112    0.983070956396600  0.0000
  O      O         0.176251976903166    0.101173042552536    0.996373510493122  0.0000
  O      O         0.825379495377998    0.907393331479742    0.976570395044814  0.0000
  O      O         0.350368133315035    0.920820950676101    0.615449303882357  0.0000
  O      O         0.677857882641149    0.109693874579700    0.612225248472549  0.0000
  O      O         0.644234200105673    0.938362454209047    0.856464261348605  0.0000
  O      O         0.351774312309320    0.077760291653878    0.868780162950028  0.0000
  O      O         0.815789191564656    0.395754512916547    0.615980703006152  0.0000
  O      O         0.181194188082952    0.614358870027711    0.620773735413141  0.0000
  O      O         0.149653065628606    0.416483292158708    0.871800552393468  0.0000
  O      O         0.819955582028721    0.603363471363584    0.851068979774403  0.0000
  O      O         0.442590301806287    0.804816553645620    0.619420336822556  0.0000
  O      O         0.558816034995774    0.139449825257904    0.602102247852066  0.0000
  O      O         0.549078967362877    0.830964142597589    0.851682510092174  0.0000
  O      O         0.445185532619972    0.179210170344417    0.828454323354452  0.0000
  O      O         0.931936892285258    0.342673902018282    0.607499163026648  0.0000
  O      O         0.062711715479069    0.657303140244027    0.623966588812467  0.0000
  O      O         0.060826386542402    0.305405300356750    0.827629194681500  0.0000
  O      O         0.939691520274176    0.633388862458772    0.852620365948235  0.0000
  O      O         0.330846589629884    0.734391223154520    0.650349918860306  0.0000
  O      O         0.634783602440547    0.280305415641689    0.643641401508259  0.0000
  O      O         0.639689824698421    0.788772977911880    0.773884669402518  0.0000
  O      O         0.336880067348794    0.211446645303856    0.775714759594542  0.0000
  O      O         0.844716032835397    0.219745416830069    0.646614501543154  0.0000
  O      O         0.148223708494215    0.789038242432881    0.655920380101537  0.0000
  O      O         0.172644011318773    0.286332026676144    0.780434788251495  0.0000
  O      O         0.871702424200962    0.735908450208053    0.773612699211520  0.0000
  O      O         0.634749285959355    0.226051494731604    0.519461506248067  0.0000
  O      O         0.355681656493088    0.777471025191856    0.528299804737797  0.0000
  O      O         0.355676901132836    0.266344066527949    0.898839755379477  0.0000
  O      O         0.654020585082327    0.755187501437876    0.901621219478059  0.0000
  O      O         0.134030523289736    0.736292969900916    0.533007535163087  0.0000
  O      O         0.852738200771966    0.277282022498343    0.520907628223009  0.0000
  O      O         0.858004674831707    0.764218832033613    0.902195558226158  0.0000
  O      O         0.150241501203604    0.227793104853367    0.902391133129137  0.0000
  O      O         0.502178761550316    0.975785158140285    0.634609154059503  0.0000
  O      O         0.491773018000405    0.998535018586157    0.818396343146256  0.0000
  O      O         0.992427740831423    0.502911973677287    0.634312830536123  0.0000
  O      O         0.003771225694460    0.477514347354655    0.819772834489856  0.0000
  O      O         0.743883809390949    0.255587074434195    0.963239123387463  0.0000
  O      O         0.244589422318285    0.748989814115738    0.976595007131805  0.0000
  O      O         0.253462794921775    0.248365626733276    0.972077095545438  0.0000
  O      O         0.754090755269244    0.750288589658860    0.977456883485724  0.0000
  O      O         0.253757333832859    0.257926562308226    0.689169737283093  0.0000
  O      O         0.754962478713657    0.758597794570514    0.747694850946988  0.0000
  O      O         0.738837778912497    0.247393061213162    0.709094598274257  0.0000
  O      O         0.241915543375645    0.754214628579090    0.739366722159194  0.0000
  Si     Si        0.712992573421587    0.504262087645157    0.992516698204168  0.0000
  Si     Si        0.282363573506980    0.497024013427529    0.500724254087317  0.0000
  Si     Si        0.215039839215122    0.999518848111047    0.501272175093544  0.0000
  Si     Si        0.781103853343863    0.999582177886347    0.993442480050923  0.0000
  Si     Si        0.717144171934867    0.508529918466599    0.743552874993994  0.0000
  Si     Si        0.279843160626038    0.488679290315543    0.750012881789744  0.0000
  Si     Si        0.217493178096712    0.012463186673002    0.750231328438983  0.0000
  Si     Si        0.782890777609282    0.995554736188802    0.746607796412346  0.0000
  Si     Si        0.682295695217463    0.720533131407117    0.971770324179723  0.0000
  Si     Si        0.323806692837168    0.286425427300311    0.970115623530631  0.0000
  Si     Si        0.315478604382472    0.712593420144546    0.977636748962407  0.0000
  Si     Si        0.673176557759328    0.292498945452708    0.968027037555898  0.0000
  Si     Si        0.182153136157362    0.215519038621019    0.974760292233227  0.0000
  Si     Si        0.824371066142425    0.788889368396760    0.971562915805485  0.0000
  Si     Si        0.813979458829568    0.216379411336593    0.966985083511541  0.0000
  Si     Si        0.174340798201847    0.788482228478112    0.975909430993895  0.0000
  Si     Si        0.629543581626482    0.808605270476360    0.604047371441811  0.0000
  Si     Si        0.376553098407992    0.186409658907008    0.597811763054777  0.0000
  Si     Si        0.364263254977779    0.803533515409737    0.848616963011424  0.0000
  Si     Si        0.626862331926665    0.202352424083472    0.839750194128735  0.0000
  Si     Si        0.119521888124485    0.322773953907134    0.595994451645436  0.0000
  Si     Si        0.875387776985364    0.689665052093900    0.599842760081745  0.0000
  Si     Si        0.870978911125534    0.307837324206288    0.840972005437292  0.0000
  Si     Si        0.123381757371544    0.689537229088544    0.849284003849952  0.0000
  Si     Si        0.308795888388431    0.709033216590416    0.724975271561024  0.0000
  Si     Si        0.673294182871871    0.301958621378762    0.710486996473419  0.0000
  Si     Si        0.686434211473398    0.723455959196150    0.730792055929258  0.0000
  Si     Si        0.321823111616034    0.285614009005445    0.715127161247451  0.0000
  Si     Si        0.808898362850428    0.213173012792929    0.717157557737564  0.0000
  Si     Si        0.174722330862894    0.802334655884454    0.730401682470052  0.0000
  Si     Si        0.186452373697497    0.225163308933349    0.713968950722770  0.0000
  Si     Si        0.823153234638603    0.789401259271637    0.724919125428607  0.0000
  Si     Si        0.370151130583004    0.808127831339442    0.604014788978004  0.0000
  Si     Si        0.625041549599251    0.188258227367896    0.594507054341873  0.0000
  Si     Si        0.622693712191683    0.826530114854493    0.847513245193551  0.0000
  Si     Si        0.372730712638342    0.184953677388687    0.843525229487191  0.0000
  Si     Si        0.862798693058845    0.309067876466449    0.597070773852165  0.0000
  Si     Si        0.129777395940868    0.698204331087796    0.608565128287511  0.0000
  Si     Si        0.132681215510013    0.308209595969604    0.845811492724600  0.0000
  Si     Si        0.873043874933142    0.683940328404107    0.845980876521328  0.0000
  Si     Si        0.499144860312222    0.860865634712077    0.654576429486772  0.0000
  Si     Si        0.502164951580391    0.093371023405716    0.642411922174957  0.0000
  Si     Si        0.492142459629402    0.880784965071674    0.812043232462430  0.0000
  Si     Si        0.500949701856788    0.112469625786452    0.800234648520678  0.0000
  Si     Si        0.992421947740446    0.385050002854407    0.641422586809242  0.0000
  Si     Si        0.000286851650098    0.616182506592731    0.655117537277979  0.0000
  Si     Si        0.001597877054600    0.363493569767962    0.799043089554495  0.0000
  Si     Si        0.999698312952685    0.595202742321499    0.813081868475127  0.0000
  Si     Si        0.702539759937227    0.999747894702686    0.620213744140896  0.0000
  Si     Si        0.297267100105054    0.001039135120033    0.625095913221711  0.0000
  Si     Si        0.296039760911608    0.002215317161346    0.875276969881694  0.0000
  Si     Si        0.700637316036743    0.010518577389593    0.868051368084437  0.0000
  Si     Si        0.201107362534834    0.501042384806804    0.625400846414848  0.0000
  Si     Si        0.794028768197280    0.507764419381616    0.617660560467985  0.0000
  Si     Si        0.796116416113612    0.495647106057409    0.868131984529087  0.0000
  Si     Si        0.201069999999959    0.500000000000000    0.875000000000000  0.0000
