data_ReferenceDataBase/ECNU-23a
_audit_creation_method             Generated by GULP
_audit_author_name                 Salvador R. G. Balestra
_symmetry_space_group_name_H-M     'P 1             '
_symmetry_Int_Tables_number        1

loop_
_symmetry_equiv_pos_site_id
_symmetry_equiv_pos_as_xyz
   1     +x,+y,+z                
_cell_length_a                       21.6894
_cell_length_b                       13.5378
_cell_length_c                       19.9458
_cell_angle_alpha                   89.6575
_cell_angle_beta                    90.0244
_cell_angle_gamma                   89.5514

loop_
_atom_site_label
_atom_site_type_symbol
_atom_site_fract_x
_atom_site_fract_y
_atom_site_fract_z
_atom_site_charge
  O      O         0.759006399999976    0.983990299999959    0.069469400000003  0.0000
  O      O         0.239494404886941    0.982500022813123    0.076584033348190  0.0000
  O      O         0.273324984696747    0.006022366219644    0.451606520318262  0.0000
  O      O         0.721129234481360    0.002824002562589    0.445310218161842  0.0000
  O      O         0.258253894371909    0.480686107841578    0.076143465924714  0.0000
  O      O         0.736564536054473    0.520955130439089    0.067789940085783  0.0000
  O      O         0.771300340464928    0.490068182312025    0.443589498620256  0.0000
  O      O         0.223653879030044    0.506107336428226    0.451359394960974  0.0000
  O      O         0.676729127222051    0.608458969333864    0.249437189716684  0.0000
  O      O         0.327775052830509    0.399733700678466    0.236898038565015  0.0000
  O      O         0.312290449610276    0.591794197706728    0.234265149793759  0.0000
  O      O         0.677216562435190    0.420396680391267    0.213553230836874  0.0000
  O      O         0.179751659122790    0.108619139485554    0.226451828405168  0.0000
  O      O         0.831005955753374    0.907817705400056    0.231220976136575  0.0000
  O      O         0.816327245546894    0.100167724651496    0.239684618135906  0.0000
  O      O         0.173425673852146    0.918186812045069    0.247542359447298  0.0000
  O      O         0.648666536801445    0.923020686686903    0.107333662957779  0.0000
  O      O         0.323140694591000    0.108484304723820    0.110949281236446  0.0000
  O      O         0.316959512140459    0.893566157998925    0.356867443078373  0.0000
  O      O         0.680378830984641    0.121007898541439    0.348735634297638  0.0000
  O      O         0.144291658465292    0.432532742350563    0.108170550722872  0.0000
  O      O         0.849252569164551    0.579437405891061    0.097800065026572  0.0000
  O      O         0.850863240037731    0.417636551780887    0.362193687158402  0.0000
  O      O         0.173870080341234    0.603710970376717    0.351350846895491  0.0000
  O      O         0.558460732920262    0.803470531977540    0.125834685835955  0.0000
  O      O         0.442948163003726    0.136774924604749    0.104385975509281  0.0000
  O      O         0.433902557689725    0.840162594448797    0.352552577609281  0.0000
  O      O         0.560575584167379    0.151650544599734    0.339120079032244  0.0000
  O      O         0.046053577039195    0.334903122394733    0.097582898091283  0.0000
  O      O         0.946178203868016    0.683020910792911    0.122535016072913  0.0000
  O      O         0.944419700134824    0.308329499773505    0.333642624664276  0.0000
  O      O         0.055717284369655    0.643792563839324    0.353587437650907  0.0000
  O      O         0.640897029004282    0.769184731231970    0.029707870126127  0.0000
  O      O         0.366805626236775    0.232955514152926    0.024811293630155  0.0000
  O      O         0.347702865182072    0.724109161702295    0.405610997441295  0.0000
  O      O         0.636170137225270    0.281177790738969    0.398866682431794  0.0000
  O      O         0.143467424513575    0.282872664964657    0.025687838094855  0.0000
  O      O         0.867986373387772    0.739199034896325    0.027406224000370  0.0000
  O      O         0.847649309431035    0.229552780579545    0.395845726616574  0.0000
  O      O         0.137979159600528    0.765630151032878    0.408238286278329  0.0000
  O      O         0.369187809537405    0.270985173323808    0.154093997122901  0.0000
  O      O         0.671638204663571    0.741574534753482    0.152798377045399  0.0000
  O      O         0.633587766292576    0.261562563581746    0.271437360268672  0.0000
  O      O         0.356483829263546    0.755873279902361    0.276432370560040  0.0000
  O      O         0.835772871366275    0.758309466737952    0.149319413037897  0.0000
  O      O         0.139020336469249    0.248827190700517    0.155074247890189  0.0000
  O      O         0.128036373359679    0.747345612309526    0.279615572590244  0.0000
  O      O         0.840976559660201    0.284644007638530    0.269925276863059  0.0000
  O      O         0.493237776868627    0.849391115330382    0.234537559892811  0.0000
  O      O         0.505514511606877    0.125443546228958    0.220044570357095  0.0000
  O      O         0.998039112646825    0.353475891595532    0.219006622221773  0.0000
  O      O         0.999800424277730    0.627334542854445    0.235323751595282  0.0000
  O      O         0.275981214514754    0.992984785033231    0.202061271369322  0.0000
  O      O         0.725281136064441    0.986696246101508    0.196112853549460  0.0000
  O      O         0.758563163458065    0.981486887202167    0.322086441340492  0.0000
  O      O         0.240238681207649    0.031792368272843    0.325747899698785  0.0000
  O      O         0.773639361796495    0.533560689673306    0.193352732349184  0.0000
  O      O         0.220720401786753    0.477201120661592    0.201526973079768  0.0000
  O      O         0.258850898933842    0.478130043363276    0.326949308613616  0.0000
  O      O         0.741433049628372    0.472668761487021    0.315999631230515  0.0000
  O      O         0.321223334805437    0.597437197646474    0.496730613708080  0.0000
  O      O         0.670246669522807    0.408055540234106    0.488250846637324  0.0000
  O      O         0.674733124735595    0.602594514247853    0.472488422584409  0.0000
  O      O         0.325073777775025    0.404143904921895    0.481550398950421  0.0000
  O      O         0.818140529129478    0.101077890669731    0.485187112752984  0.0000
  O      O         0.172399510930603    0.907190059896530    0.483149098233319  0.0000
  O      O         0.176183255883627    0.101397873981943    0.496426889129798  0.0000
  O      O         0.825409995736010    0.907660721891937    0.476541601966767  0.0000
  O      O         0.350331914713491    0.920966140734431    0.115436930804051  0.0000
  O      O         0.678027198388408    0.110042320422804    0.111900317141859  0.0000
  O      O         0.644195805004418    0.938663036684397    0.356411456345941  0.0000
  O      O         0.351753789657736    0.077950364921271    0.368777981679672  0.0000
  O      O         0.815736193504498    0.396021299207399    0.115999182606545  0.0000
  O      O         0.181173722852162    0.614571066888101    0.120808384178279  0.0000
  O      O         0.149585366717804    0.416718053818966    0.371799291977363  0.0000
  O      O         0.819902558199484    0.603647524590019    0.351040718899584  0.0000
  O      O         0.442544887721819    0.804937989230347    0.119527438475425  0.0000
  O      O         0.558955114516044    0.139329932956989    0.102254053122625  0.0000
  O      O         0.549051268967804    0.831219595258275    0.351761295813267  0.0000
  O      O         0.445162950983731    0.179450307077646    0.328516322482975  0.0000
  O      O         0.931887060243054    0.342930389292693    0.107513067194500  0.0000
  O      O         0.062680710571319    0.657484220130591    0.123984934595988  0.0000
  O      O         0.060781010900046    0.305594736518396    0.327636477288181  0.0000
  O      O         0.939647241446987    0.633591121003398    0.352626984166881  0.0000
  O      O         0.330775402164037    0.734579200896018    0.150404622954617  0.0000
  O      O         0.634773402972545    0.280429183589650    0.143730189592279  0.0000
  O      O         0.639630636486299    0.788969724773676    0.273934771754272  0.0000
  O      O         0.336872451463072    0.211667164344432    0.275733845251267  0.0000
  O      O         0.844664001528280    0.220027505130921    0.146664501545373  0.0000
  O      O         0.148174519121768    0.789224981923217    0.155986745335517  0.0000
  O      O         0.172633010527174    0.286452848854078    0.280523925884030  0.0000
  O      O         0.871669339953013    0.736250261878989    0.273662851374925  0.0000
  O      O         0.634533657856647    0.226569952298980    0.019519737426297  0.0000
  O      O         0.355680917653653    0.777566800183183    0.028353376611604  0.0000
  O      O         0.355609406403152    0.266522904484390    0.398879785057003  0.0000
  O      O         0.654042346211562    0.755555555856025    0.401675426070244  0.0000
  O      O         0.134010506288220    0.736532705425711    0.033065378361838  0.0000
  O      O         0.852675548804142    0.277513720981602    0.020948914995142  0.0000
  O      O         0.858013072613185    0.764413663944707    0.402254698398836  0.0000
  O      O         0.150160066671852    0.228052395935360    0.402476366119096  0.0000
  O      O         0.501963303929587    0.976023897152297    0.134683277689120  0.0000
  O      O         0.491728149059367    0.998763920713356    0.318460204441266  0.0000
  O      O         0.992375151886198    0.503132385539603    0.134395559991720  0.0000
  O      O         0.003761226361243    0.477735889077231    0.319814321888082  0.0000
  O      O         0.743776096661835    0.255863128543652    0.463379288957679  0.0000
  O      O         0.244571636404220    0.749191599525932    0.476649184384871  0.0000
  O      O         0.253404370711325    0.248572282768480    0.472140858625142  0.0000
  O      O         0.754097230197813    0.750570513857675    0.477526221736200  0.0000
  O      O         0.253725709187024    0.258167314637268    0.189215220400096  0.0000
  O      O         0.754910917888464    0.758860962741760    0.247732901057984  0.0000
  O      O         0.738810010341645    0.247576643490848    0.209225537887584  0.0000
  O      O         0.241861239761928    0.754380472821546    0.239441141755477  0.0000
  Si     Si        0.712930736406748    0.504611867583993    0.492549733318709  0.0000
  Si     Si        0.282320032474650    0.497179560596636    0.000772587147546  0.0000
  Si     Si        0.215018343625743    0.999789002794933    0.001331558893729  0.0000
  Si     Si        0.781083938503821    0.999775901499586    0.493449597812221  0.0000
  Si     Si        0.717103417790888    0.508771558296343    0.243568397930276  0.0000
  Si     Si        0.279817371843956    0.488903924248597    0.250081638631364  0.0000
  Si     Si        0.217479634227409    0.012640010197951    0.250263268153910  0.0000
  Si     Si        0.782882736159797    0.995888084737904    0.246630282010062  0.0000
  Si     Si        0.682286056461766    0.720898222755085    0.471836141854669  0.0000
  Si     Si        0.323757763078909    0.286597773197209    0.470165073061457  0.0000
  Si     Si        0.315455376617358    0.712752541754906    0.477677136846571  0.0000
  Si     Si        0.673073798644602    0.292851736080936    0.468084622294695  0.0000
  Si     Si        0.182087074620565    0.215749637992172    0.474831265913642  0.0000
  Si     Si        0.824385054192720    0.789149264851330    0.471607808542644  0.0000
  Si     Si        0.813875316107753    0.216643989348205    0.467046527746823  0.0000
  Si     Si        0.174327370616196    0.788715513634703    0.475970105799257  0.0000
  Si     Si        0.629510431870466    0.808973829022647    0.104106042668845  0.0000
  Si     Si        0.376586028090245    0.186676705033022    0.097868802135462  0.0000
  Si     Si        0.364226605824313    0.803746540001602    0.348678594129606  0.0000
  Si     Si        0.626827813169918    0.202610589193700    0.339818924865621  0.0000
  Si     Si        0.119477445144859    0.322994089587680    0.096084576653557  0.0000
  Si     Si        0.875360588596257    0.689919741336769    0.099893287490747  0.0000
  Si     Si        0.870916553686849    0.308128748446156    0.341049352059868  0.0000
  Si     Si        0.123349124048352    0.689768186118287    0.349363748120570  0.0000
  Si     Si        0.308753709827988    0.709246287126529    0.225043180910644  0.0000
  Si     Si        0.673272052319075    0.302166389981140    0.210559878957039  0.0000
  Si     Si        0.686382809365053    0.723700213015101    0.230822491080750  0.0000
  Si     Si        0.321799156403773    0.285853287171887    0.215162182686856  0.0000
  Si     Si        0.808895757599410    0.213450133138146    0.217231672507652  0.0000
  Si     Si        0.174675245359958    0.802528610061286    0.230463303322583  0.0000
  Si     Si        0.186430720072552    0.225355434646223    0.214029576056134  0.0000
  Si     Si        0.823103100455623    0.789674452708653    0.224953069558579  0.0000
  Si     Si        0.370112374644527    0.808266662790332    0.104065325614580  0.0000
  Si     Si        0.625055914398022    0.188482214572999    0.094519306494874  0.0000
  Si     Si        0.622668594022743    0.826807280110793    0.347549466960916  0.0000
  Si     Si        0.372697797142514    0.185166522579754    0.343557950464168  0.0000
  Si     Si        0.862742819449200    0.309326905778325    0.097102932399358  0.0000
  Si     Si        0.129749402656296    0.698409375731119    0.108611805294263  0.0000
  Si     Si        0.132630980090818    0.308416067069537    0.345857075965359  0.0000
  Si     Si        0.873013893973968    0.684195881065025    0.346000473994324  0.0000
  Si     Si        0.499076959567540    0.861098947745848    0.154645929096970  0.0000
  Si     Si        0.502165735808529    0.093593024268912    0.142487236950998  0.0000
  Si     Si        0.492110485873834    0.881016924159149    0.312109629086836  0.0000
  Si     Si        0.500924610503243    0.112693378960112    0.300302334210383  0.0000
  Si     Si        0.992357207294830    0.385272695954041    0.141492580922693  0.0000
  Si     Si        0.000260216958865    0.616401581338853    0.155176574125822  0.0000
  Si     Si        0.001539152778762    0.363713201082460    0.299106780905869  0.0000
  Si     Si        0.999680111811712    0.595421606388552    0.313130695306236  0.0000
  Si     Si        0.702563503657350    0.000061604459435    0.120194058396283  0.0000
  Si     Si        0.297284792496450    0.001245911881306    0.125154603526997  0.0000
  Si     Si        0.296007031538890    0.002434587103097    0.375325624193129  0.0000
  Si     Si        0.700610386974176    0.010778308670455    0.368070267760121  0.0000
  Si     Si        0.201079453444417    0.501254986947983    0.125460268948334  0.0000
  Si     Si        0.793985679248074    0.508032922094901    0.117680879907048  0.0000
  Si     Si        0.796057043377298    0.495952150540688    0.368157257801465  0.0000
  Si     Si        0.201021152406932    0.500202406100664    0.375054494919568  0.0000
  O      O         0.759006647796338    0.983987962684260    0.569469322326035  0.0000
  O      O         0.239494565786052    0.982501327174028    0.576584143001213  0.0000
  O      O         0.273324906370761    0.006022881282600    0.951606522385503  0.0000
  O      O         0.721129192316345    0.002823500929365    0.945310140641275  0.0000
  O      O         0.258254015485920    0.480686366697417    0.576143584263026  0.0000
  O      O         0.736564452551309    0.520954308332492    0.567790055708308  0.0000
  O      O         0.771300327728130    0.490066862618953    0.943589493306496  0.0000
  O      O         0.223653848437059    0.506108683620772    0.951359340534163  0.0000
  O      O         0.676728995626104    0.608458441771639    0.749437144637818  0.0000
  O      O         0.327775160660328    0.399733873946854    0.736898161583237  0.0000
  O      O         0.312290412616198    0.591794355793343    0.734265276759861  0.0000
  O      O         0.677217156697166    0.420396114612979    0.713552915559712  0.0000
  O      O         0.179752001004686    0.108619173770352    0.726451550278392  0.0000
  O      O         0.831005638218244    0.907817514667513    0.731220606058179  0.0000
  O      O         0.816328143304958    0.100167665478368    0.739685104238604  0.0000
  O      O         0.173425613971348    0.918186960431987    0.747542253370648  0.0000
  O      O         0.648666501624731    0.923020977668153    0.607334884008225  0.0000
  O      O         0.323141610474595    0.108484179979655    0.610950216835706  0.0000
  O      O         0.316959487865714    0.893566147741466    0.856867800568384  0.0000
  O      O         0.680378851663499    0.121007765670381    0.848735743955238  0.0000
  O      O         0.144291765519282    0.432532836374248    0.608170490752089  0.0000
  O      O         0.849252428008182    0.579437510646967    0.597799533251778  0.0000
  O      O         0.850863619374035    0.417636999301339    0.862193363354828  0.0000
  O      O         0.173869532918118    0.603710436330852    0.851350142543659  0.0000
  O      O         0.558460526804877    0.803470988955972    0.625834455502069  0.0000
  O      O         0.442948997103571    0.136776399626402    0.604385943368579  0.0000
  O      O         0.433902528743534    0.840162601832893    0.852552614999898  0.0000
  O      O         0.560575634838876    0.151650637553523    0.839120269480830  0.0000
  O      O         0.046053703490459    0.334903255920087    0.597582793905142  0.0000
  O      O         0.946178086988968    0.683020924203498    0.622534902773128  0.0000
  O      O         0.944420056786794    0.308329663461148    0.833642579560422  0.0000
  O      O         0.055716903489518    0.643793095288951    0.853587366772131  0.0000
  O      O         0.640897195965347    0.769186150756281    0.529707818129600  0.0000
  O      O         0.366805663914107    0.232954872449260    0.524811280661660  0.0000
  O      O         0.347702879926599    0.724109068427414    0.905611034447907  0.0000
  O      O         0.636170262467679    0.281177659652548    0.898866969869123  0.0000
  O      O         0.143467592633883    0.282872573518983    0.525687948211885  0.0000
  O      O         0.867986383465094    0.739199588597222    0.527406223201361  0.0000
  O      O         0.847649666764763    0.229553129682832    0.895845510547832  0.0000
  O      O         0.137979193980792    0.765629707333788    0.908238233435058  0.0000
  O      O         0.369187999277975    0.270985794796877    0.654093875936816  0.0000
  O      O         0.671637742774479    0.741574024393958    0.652798326512975  0.0000
  O      O         0.633587918196494    0.261562860437179    0.771437676054335  0.0000
  O      O         0.356483667013730    0.755873588314351    0.776432393437458  0.0000
  O      O         0.835772638113285    0.758309062237852    0.649319426778499  0.0000
  O      O         0.139020395856098    0.248827471087168    0.655074430762691  0.0000
  O      O         0.128036082488468    0.747345945469410    0.779615522729136  0.0000
  O      O         0.840976998409668    0.284644395949462    0.769925044411583  0.0000
  O      O         0.493237948967685    0.849391108055070    0.734537710734097  0.0000
  O      O         0.505514735991499    0.125443495066809    0.720044739545715  0.0000
  O      O         0.998039305910645    0.353476088229946    0.719006519289688  0.0000
  O      O         0.999800140420457    0.627334524001421    0.735323647494375  0.0000
  O      O         0.275981388952590    0.992984239870357    0.702061324784170  0.0000
  O      O         0.725281316116059    0.986698708227590    0.696112776377186  0.0000
  O      O         0.758563290445257    0.981486957203284    0.822086372720479  0.0000
  O      O         0.240238697052381    0.031792285027030    0.825747844006669  0.0000
  O      O         0.773639451542900    0.533561270373723    0.693352690938958  0.0000
  O      O         0.220720469156891    0.477201034750510    0.701527045187260  0.0000
  O      O         0.258850933449175    0.478130138238496    0.826949404629445  0.0000
  O      O         0.741433236788237    0.472668553213541    0.815999523919908  0.0000
  O      O         0.321223430810571    0.597437459092559    0.996730998151353  0.0000
  O      O         0.670246784723997    0.408054905487117    0.988251519750602  0.0000
  O      O         0.674733254058067    0.602593858270366    0.972487776605431  0.0000
  O      O         0.325073525016366    0.404144193762125    0.981549983293958  0.0000
  O      O         0.818140736484703    0.101077651594880    0.985186316628804  0.0000
  O      O         0.172399436889851    0.907190083217481    0.983148567436939  0.0000
  O      O         0.176183245931163    0.101397850717223    0.996427292158987  0.0000
  O      O         0.825409786859869    0.907660451460013    0.976542316951288  0.0000
  O      O         0.350331876445416    0.920965961902372    0.615436455541113  0.0000
  O      O         0.678028278668038    0.110042418393102    0.611897702577902  0.0000
  O      O         0.644195946865151    0.938662802657781    0.856411027362140  0.0000
  O      O         0.351753793962409    0.077950385985205    0.868777842266948  0.0000
  O      O         0.815736518023498    0.396021407171628    0.615999871003499  0.0000
  O      O         0.181173700628263    0.614571103212538    0.620808606496864  0.0000
  O      O         0.149585708308868    0.416717501129557    0.871799779427942  0.0000
  O      O         0.819902165463289    0.603647852279649    0.851041373305089  0.0000
  O      O         0.442544703142242    0.804937540752246    0.619527830872890  0.0000
  O      O         0.558956057974380    0.139328193911753    0.602254561355713  0.0000
  O      O         0.549051251219829    0.831219673924196    0.851761539011246  0.0000
  O      O         0.445163002738107    0.179450356771765    0.828516402316729  0.0000
  O      O         0.931887226174535    0.342929918808438    0.607512980132138  0.0000
  O      O         0.062680643631164    0.657484203105164    0.623984966707590  0.0000
  O      O         0.060781322005442    0.305594854298562    0.827636242005888  0.0000
  O      O         0.939646902581636    0.633590898259788    0.852626859134825  0.0000
  O      O         0.330775018690277    0.734579363202098    0.650404685195877  0.0000
  O      O         0.634773836368918    0.280428094645035    0.643730485782462  0.0000
  O      O         0.639630269201517    0.788969042725194    0.773934777840055  0.0000
  O      O         0.336872636816800    0.211667231811154    0.775733673453521  0.0000
  O      O         0.844663993225916    0.220027275566862    0.646664407041269  0.0000
  O      O         0.148174466493664    0.789225045639939    0.655986690544354  0.0000
  O      O         0.172633414302197    0.286452603750494    0.780524089575052  0.0000
  O      O         0.871668896452564    0.736250207529564    0.773662949737823  0.0000
  O      O         0.634532713681978    0.226571599936243    0.519519721411126  0.0000
  O      O         0.355681025653883    0.777566163591898    0.528353433957297  0.0000
  O      O         0.355609286379193    0.266522897879208    0.898879707499827  0.0000
  O      O         0.654042417088806    0.755555557568413    0.901675434274858  0.0000
  O      O         0.134010527895642    0.736532398740997    0.533065360397892  0.0000
  O      O         0.852675179892422    0.277514344876955    0.520948938855806  0.0000
  O      O         0.858013023046424    0.764413985216632    0.902254794244527  0.0000
  O      O         0.150160004115923    0.228051849641280    0.902476387640782  0.0000
  O      O         0.501962457235890    0.976023933099404    0.634683410063260  0.0000
  O      O         0.491728177722039    0.998763957867793    0.818460375001013  0.0000
  O      O         0.992374998937870    0.503132394943776    0.634395373529663  0.0000
  O      O         0.003761446376037    0.477736039504510    0.819814274648711  0.0000
  O      O         0.743776498700025    0.255863132016425    0.963379026124474  0.0000
  O      O         0.244571620594339    0.749191612578912    0.976649148020167  0.0000
  O      O         0.253404260001013    0.248572396889871    0.972140860863845  0.0000
  O      O         0.754097184271076    0.750570101749824    0.977526370269917  0.0000
  O      O         0.253725885285248    0.258167563945234    0.689215071911075  0.0000
  O      O         0.754910515066396    0.758860966049239    0.747732726696956  0.0000
  O      O         0.738810200769242    0.247575517191453    0.709226141180214  0.0000
  O      O         0.241861010974704    0.754380382734143    0.739441393902955  0.0000
  Si     Si        0.712930802177980    0.504611413035548    0.992549740315170  0.0000
  Si     Si        0.282320095759870    0.497179219964662    0.500772634538753  0.0000
  Si     Si        0.215018437845526    0.999789161077831    0.501331615250618  0.0000
  Si     Si        0.781083857809269    0.999776069690810    0.993449584085350  0.0000
  Si     Si        0.717103583656644    0.508771321529925    0.743568307401676  0.0000
  Si     Si        0.279817413376408    0.488904011621103    0.750081738377872  0.0000
  Si     Si        0.217479757081185    0.012639939482895    0.750263178570380  0.0000
  Si     Si        0.782882967318055    0.995888455459685    0.746630277726915  0.0000
  Si     Si        0.682286054259399    0.720897620245539    0.971836032017858  0.0000
  Si     Si        0.323757629965243    0.286597979956322    0.970164960200985  0.0000
  Si     Si        0.315455390574171    0.712752720435903    0.977677212463720  0.0000
  Si     Si        0.673074153739582    0.292851255173965    0.968084803711900  0.0000
  Si     Si        0.182087005086628    0.215749513289898    0.974831347810535  0.0000
  Si     Si        0.824384965312756    0.789149065016466    0.971608011646762  0.0000
  Si     Si        0.813875680509724    0.216643900274587    0.967046244673495  0.0000
  Si     Si        0.174327350133281    0.788715465052515    0.975969984122155  0.0000
  Si     Si        0.629510317467609    0.808974236694366    0.604106200511341  0.0000
  Si     Si        0.376586510211881    0.186676980062436    0.597868956388063  0.0000
  Si     Si        0.364226571223458    0.803746587207920    0.848678682366299  0.0000
  Si     Si        0.626827897083124    0.202610581787498    0.839819129592308  0.0000
  Si     Si        0.119477566115993    0.322994163917952    0.596084613964492  0.0000
  Si     Si        0.875360481048122    0.689919816613747    0.599893143274858  0.0000
  Si     Si        0.870916918080122    0.308129094212625    0.841049180050330  0.0000
  Si     Si        0.123348889007650    0.689768151258094    0.849363572681578  0.0000
  Si     Si        0.308753516081147    0.709246429391519    0.725043301907548  0.0000
  Si     Si        0.673272414895298    0.302165810659970    0.710560077679527  0.0000
  Si     Si        0.686382478616954    0.723699723847445    0.730822419112625  0.0000
  Si     Si        0.321799328165743    0.285853532847263    0.715162101916157  0.0000
  Si     Si        0.808896167106442    0.213449923328401    0.717231829726046  0.0000
  Si     Si        0.174675090915819    0.802528727625845    0.730463296442293  0.0000
  Si     Si        0.186430961521083    0.225355520057117    0.714029550223178  0.0000
  Si     Si        0.823102748744415    0.789674255788033    0.724953000339485  0.0000
  Si     Si        0.370112260561380    0.808266384641429    0.604065351628382  0.0000
  Si     Si        0.625056282323015    0.188481967206670    0.594518984475760  0.0000
  Si     Si        0.622668560925965    0.826807075384029    0.847549441873134  0.0000
  Si     Si        0.372697815591559    0.185166572629485    0.843557884324875  0.0000
  Si     Si        0.862742860079403    0.309326903038692    0.597103027516132  0.0000
  Si     Si        0.129749356114055    0.698409317240425    0.608611846365652  0.0000
  Si     Si        0.132631224053057    0.308415786394487    0.845857137124320  0.0000
  Si     Si        0.873013625092236    0.684195981048411    0.846000607355628  0.0000
  Si     Si        0.499076741116466    0.861098954408615    0.654646047417747  0.0000
  Si     Si        0.502166021252612    0.093592983635647    0.642487407010415  0.0000
  Si     Si        0.492110504163949    0.881016960868898    0.812109769063798  0.0000
  Si     Si        0.500924691907765    0.112693407702826    0.800302493491884  0.0000
  Si     Si        0.992357276284504    0.385272691202522    0.641492458239340  0.0000
  Si     Si        0.000260083152765    0.616401573411695    0.655176472016897  0.0000
  Si     Si        0.001539454462865    0.363713371082145    0.799106665093021  0.0000
  Si     Si        0.999679887508872    0.595421723915758    0.813130614924185  0.0000
  Si     Si        0.702563835797806    0.000061718977370    0.620193805648833  0.0000
  Si     Si        0.297285077622135    0.001246043511662    0.625154711388876  0.0000
  Si     Si        0.296007013302521    0.002434686183810    0.875325656059793  0.0000
  Si     Si        0.700610438020012    0.010778125515502    0.868070163695025  0.0000
  Si     Si        0.201079531050023    0.501255056763832    0.625460357102956  0.0000
  Si     Si        0.793985729807100    0.508032931366758    0.617680881870322  0.0000
  Si     Si        0.796057095703433    0.495951986578524    0.868157303409708  0.0000
  Si     Si        0.201021106359317    0.500202511102351    0.875054472484085  0.0000
