data_ReferenceDataBase/ECNU-23b
_audit_creation_method             Generated by GULP
_audit_author_name                 Salvador R. G. Balestra
_symmetry_space_group_name_H-M     'P 1             '
_symmetry_Int_Tables_number        1

loop_
_symmetry_equiv_pos_site_id
_symmetry_equiv_pos_as_xyz
   1     +x,+y,+z                
_cell_length_a                       21.6770
_cell_length_b                       13.5400
_cell_length_c                       10.0130
_cell_angle_alpha                   90.0000
_cell_angle_beta                    90.0000
_cell_angle_gamma                   89.0877

loop_
_atom_site_label
_atom_site_type_symbol
_atom_site_fract_x
_atom_site_fract_y
_atom_site_fract_z
_atom_site_charge
  O      O         0.751559300000054    0.986171300000024    0.177288299999987  0.0000
  O      O         0.233261508917874    0.026689615767873    0.177285315461927  0.0000
  O      O         0.269419052885483    0.014533225681358    0.927555438126422  0.0000
  O      O         0.715402920518000    0.998325658148828    0.927557428777975  0.0000
  O      O         0.251560425073185    0.486170697704564    0.677285435938619  0.0000
  O      O         0.733261612362984    0.526689175975558    0.677286575308540  0.0000
  O      O         0.769418917682982    0.514532613474487    0.427556584088560  0.0000
  O      O         0.215403123500470    0.498327034313197    0.427555370887235  0.0000
  O      O         0.668400815606635    0.614727975613611    0.496189630110431  0.0000
  O      O         0.316421281293467    0.398131922988302    0.496188655736609  0.0000
  O      O         0.314281854825849    0.591330281151937    0.506108238287647  0.0000
  O      O         0.670540144318709    0.421529538583530    0.506109592414380  0.0000
  O      O         0.168400851144362    0.114728445798850    0.996188218147417  0.0000
  O      O         0.816421276880627    0.898131794572091    0.996191401808128  0.0000
  O      O         0.814281458976137    0.091330112308428    0.006109841499115  0.0000
  O      O         0.170540199417762    0.921530107180625    0.006107748121863  0.0000
  O      O         0.637417272091145    0.938362141907622    0.239460429861168  0.0000
  O      O         0.347404231076498    0.074498051406742    0.239458290879322  0.0000
  O      O         0.311474800171695    0.895617282144900    0.745898898533583  0.0000
  O      O         0.673347607572633    0.117243192494342    0.745902726733369  0.0000
  O      O         0.137417664316585    0.438362414728488    0.739458273273250  0.0000
  O      O         0.847404187561887    0.574498295996834    0.739459454898911  0.0000
  O      O         0.811474777109944    0.395617129495970    0.245899718830674  0.0000
  O      O         0.173347468113785    0.617243161126360    0.245898903379455  0.0000
  O      O         0.545096978585065    0.827798032405537    0.294194075166397  0.0000
  O      O         0.439724632443248    0.185062025094537    0.294194461229142  0.0000
  O      O         0.429579754137258    0.847753251023493    0.732590278270993  0.0000
  O      O         0.555242646189080    0.165106554079553    0.732590580846067  0.0000
  O      O         0.045097337969963    0.327798261867760    0.794194124700171  0.0000
  O      O         0.939724819183601    0.685062073738052    0.794194030418556  0.0000
  O      O         0.929579694473169    0.347753429181949    0.232590465749390  0.0000
  O      O         0.055242510848519    0.665106895051196    0.232590080522139  0.0000
  O      O         0.617174999889498    0.779812154894066    0.091686273819113  0.0000
  O      O         0.367647248232309    0.233048714749304    0.091685801026667  0.0000
  O      O         0.346971262075912    0.725324040772398    0.836332373744781  0.0000
  O      O         0.637850676356326    0.287536661971248    0.836333190375386  0.0000
  O      O         0.117174775071742    0.279811779558194    0.591685586805648  0.0000
  O      O         0.867646973880253    0.733048674296391    0.591686339171072  0.0000
  O      O         0.846971632841791    0.225323982728674    0.336333429388583  0.0000
  O      O         0.137850857558147    0.787536307286335    0.336332415706264  0.0000
  O      O         0.325391035600022    0.252597627410319    0.330907927976912  0.0000
  O      O         0.659430432812676    0.760262149481954    0.330908900093126  0.0000
  O      O         0.634256492875861    0.249174225845274    0.580229802206723  0.0000
  O      O         0.350566277302952    0.763684848502127    0.580228797000575  0.0000
  O      O         0.825391540818158    0.752598244257090    0.830909011703002  0.0000
  O      O         0.159430948097591    0.260262843196754    0.830907782859289  0.0000
  O      O         0.134255866748008    0.749175622950119    0.080228869476271  0.0000
  O      O         0.850566155759907    0.263684590277465    0.080229737525230  0.0000
  O      O         0.249920241173260    0.480111250096461    0.176404232039001  0.0000
  O      O         0.734901916851759    0.532749099975439    0.176405443238681  0.0000
  O      O         0.767719117454656    0.528776576785324    0.925890967693455  0.0000
  O      O         0.217102925926417    0.484083948337903    0.925889810546580  0.0000
  O      O         0.749920415037576    0.980111705145934    0.676406179086957  0.0000
  O      O         0.234901951550551    0.032749128881950    0.676404300889526  0.0000
  O      O         0.267719015776501    0.028776450623252    0.425889778262913  0.0000
  O      O         0.717102408032273    0.984084600730391    0.425892109851686  0.0000
  O      O         0.161136198125487    0.108799699272414    0.500857163047364  0.0000
  O      O         0.823685390950331    0.904060551936837    0.500857674458384  0.0000
  O      O         0.808789289739408    0.096750936664670    0.506790137388086  0.0000
  O      O         0.176032780861171    0.916109312603846    0.506789436290523  0.0000
  O      O         0.661136264486233    0.608799920421688    0.000858118381529  0.0000
  O      O         0.323685840338301    0.404060679687515    0.000856881037754  0.0000
  O      O         0.308789229357270    0.596751049027114    0.006789147601751  0.0000
  O      O         0.676032757666878    0.416109560253245    0.006790208929225  0.0000
  O      O         0.136483483530692    0.434038883059126    0.259928762573225  0.0000
  O      O         0.848338650917889    0.578821408627401    0.259930676581766  0.0000
  O      O         0.810718086966282    0.393508120518967    0.764015459817588  0.0000
  O      O         0.174104209194474    0.619352296277876    0.764013638508060  0.0000
  O      O         0.636483524241108    0.934038857736052    0.759929452372668  0.0000
  O      O         0.348338726167445    0.078821523957419    0.759929013559243  0.0000
  O      O         0.310717711743468    0.893508102505929    0.264013748050464  0.0000
  O      O         0.674103812098246    0.119352449976449    0.264014365843296  0.0000
  O      O         0.044316462774443    0.328087826108348    0.182359610334298  0.0000
  O      O         0.940505647900753    0.684772097254103    0.182359784967132  0.0000
  O      O         0.929369724248822    0.345985960657769    0.749884523707069  0.0000
  O      O         0.055452343786753    0.666873347951526    0.749883887121519  0.0000
  O      O         0.544316589463897    0.828087938921084    0.682359167257229  0.0000
  O      O         0.440505903617659    0.184772298395933    0.682359953054159  0.0000
  O      O         0.429369516895829    0.845986636813186    0.249884036636697  0.0000
  O      O         0.555452124408379    0.166873651625330    0.249884053653217  0.0000
  O      O         0.154170175854127    0.295999550213391    0.088555441456236  0.0000
  O      O         0.830651756896289    0.716860002011922    0.088556428545740  0.0000
  O      O         0.842989962538109    0.219613374400804    0.832140651375883  0.0000
  O      O         0.141831718093136    0.793246537395070    0.832139561678983  0.0000
  O      O         0.654170585018788    0.795999274415220    0.588556654293463  0.0000
  O      O         0.330652262568151    0.216860773134623    0.588555443937663  0.0000
  O      O         0.342989951362010    0.719613740175569    0.332139558121501  0.0000
  O      O         0.641831556210370    0.293246481781528    0.332140717942635  0.0000
  O      O         0.857532528309085    0.765958254727176    0.336802205074404  0.0000
  O      O         0.127289934437454    0.246902237593433    0.336801543736882  0.0000
  O      O         0.131165204624730    0.744860915525628    0.583995930098468  0.0000
  O      O         0.853656432731339    0.267999495238973    0.583997068261014  0.0000
  O      O         0.357532460229094    0.265958143703070    0.836801648488030  0.0000
  O      O         0.627289604275482    0.746902285038103    0.836802415084332  0.0000
  O      O         0.631165243809647    0.244861212979870    0.083996791437790  0.0000
  O      O         0.353656568750747    0.767999498212062    0.083995960097089  0.0000
  O      O         0.992411151494292    0.506430060491184    0.187627971553047  0.0000
  O      O         0.992410830994479    0.506429987947358    0.789214518006571  0.0000
  O      O         0.492411145195242    0.006430027065455    0.687627962005629  0.0000
  O      O         0.492410902184163    0.006430134387370    0.289214644921990  0.0000
  O      O         0.970245186154271    0.385368083543774    0.988715679403585  0.0000
  O      O         0.014576879574788    0.627491996792246    0.988715491707532  0.0000
  O      O         0.470245042595050    0.885368160406329    0.488715579015054  0.0000
  O      O         0.514576995165055    0.127492086591322    0.488715676310576  0.0000
  O      O         0.740260096203534    0.248858115759045    0.974583397402740  0.0000
  O      O         0.244561806120833    0.764002451016766    0.974582077824402  0.0000
  O      O         0.257859478063375    0.240603518002713    0.980117348059493  0.0000
  O      O         0.726962729744732    0.772256831327678    0.980117741755115  0.0000
  O      O         0.240260147547866    0.748857822864901    0.474582932401886  0.0000
  O      O         0.744561970831061    0.264002377425012    0.474581910730614  0.0000
  O      O         0.757859391271805    0.740603045280692    0.480116961029658  0.0000
  O      O         0.226962731293110    0.272256722666204    0.480118161371486  0.0000
  Si     Si        0.694667526485898    0.006445980083973    0.275557152019418  0.0000
  Si     Si        0.290153508062652    0.006414637928398    0.275554922357370  0.0000
  Si     Si        0.291264724145374    0.006526661687106    0.775472128710461  0.0000
  Si     Si        0.693557569925724    0.006333482506066    0.775474136304567  0.0000
  Si     Si        0.194668388072879    0.506445764803606    0.775554920202850  0.0000
  Si     Si        0.790153680385971    0.506414572320774    0.775556196797386  0.0000
  Si     Si        0.791264677452250    0.506526448352612    0.275473295584981  0.0000
  Si     Si        0.193557463450902    0.506333727503424    0.275472032073942  0.0000
  Si     Si        0.709738111437105    0.519616623044857    0.026609735055026  0.0000
  Si     Si        0.275083966101097    0.493243912138532    0.026608540927034  0.0000
  Si     Si        0.209738057044656    0.019616443008754    0.526608702415600  0.0000
  Si     Si        0.775083846052449    0.993244035346340    0.526610139920883  0.0000
  Si     Si        0.210636095055932    0.018290597887204    0.025428351166277  0.0000
  Si     Si        0.774185619559980    0.994569404982862    0.025431055054330  0.0000
  Si     Si        0.710636087295347    0.518290098958368    0.525429731325210  0.0000
  Si     Si        0.274185956675780    0.494569735254606    0.525428608342741  0.0000
  Si     Si        0.659098676296658    0.726791803553503    0.979157557610981  0.0000
  Si     Si        0.325723502641925    0.286068749294986    0.979156819086608  0.0000
  Si     Si        0.311635823405090    0.712941681773383    0.976549874482918  0.0000
  Si     Si        0.673186098295810    0.299918948048153    0.976550864303757  0.0000
  Si     Si        0.159098635488961    0.226791631933556    0.479156982880568  0.0000
  Si     Si        0.825723337102452    0.786068666258337    0.479157236432788  0.0000
  Si     Si        0.811635978122576    0.212941562503030    0.476550660185614  0.0000
  Si     Si        0.173186116066718    0.799918675977037    0.476550140542005  0.0000
  Si     Si        0.614471010545942    0.826112365839728    0.239016852779119  0.0000
  Si     Si        0.370350760914150    0.186747752553634    0.239016086386679  0.0000
  Si     Si        0.360439796906323    0.807945984218703    0.725281348679432  0.0000
  Si     Si        0.624382545301630    0.204914069891544    0.725282714930629  0.0000
  Si     Si        0.114471174337818    0.326112674556407    0.739015907081685  0.0000
  Si     Si        0.870350825081133    0.686747940793201    0.739016694585750  0.0000
  Si     Si        0.860439843373954    0.307945912906229    0.225282112367766  0.0000
  Si     Si        0.124382369039623    0.704914365136367    0.225281332884359  0.0000
  Si     Si        0.184406521130629    0.229624598065330    0.975029322200164  0.0000
  Si     Si        0.800415701076576    0.783235769723823    0.975030645866830  0.0000
  Si     Si        0.809769611742594    0.207091301552059    0.974055909231702  0.0000
  Si     Si        0.175052203267109    0.805768833326697    0.974054605170332  0.0000
  Si     Si        0.684406451982785    0.729624086387294    0.475030145142459  0.0000
  Si     Si        0.300415629183440    0.283235765568700    0.475029655078164  0.0000
  Si     Si        0.309769736288410    0.707091526169629    0.474054906653100  0.0000
  Si     Si        0.675052326475856    0.305768381643771    0.474055546984464  0.0000
  Si     Si        0.115896038082531    0.324945457825209    0.218830500502219  0.0000
  Si     Si        0.868926157946322    0.687914618119310    0.218831436082277  0.0000
  Si     Si        0.860548673334887    0.307939304174050    0.732892790339274  0.0000
  Si     Si        0.124273209038002    0.704920647746699    0.732891547926303  0.0000
  Si     Si        0.615896079539983    0.824945457610927    0.718831108710734  0.0000
  Si     Si        0.368926285952825    0.187914853114774    0.718830675508206  0.0000
  Si     Si        0.360548571325983    0.807939604824222    0.232891624491040  0.0000
  Si     Si        0.624273022787566    0.204920971688928    0.232892264397528  0.0000
  Si     Si        0.984528447766412    0.393015831773132    0.145687981790164  0.0000
  Si     Si        0.000293713041475    0.619844295572906    0.145687859957358  0.0000
  Si     Si        0.984883265826775    0.392690904079838    0.832162201016763  0.0000
  Si     Si        0.999938738313160    0.620169040119898    0.832162007638010  0.0000
  Si     Si        0.484528467161027    0.893015822111111    0.645687834333107  0.0000
  Si     Si        0.500293866281841    0.119844273264514    0.645688058597552  0.0000
  Si     Si        0.484883083915396    0.892691063506253    0.332162095200155  0.0000
  Si     Si        0.499938625242462    0.120169159737708    0.332162256257915  0.0000
