data_ReferenceDataBase/ECNU-23b
_audit_creation_method             Generated by GULP
_audit_author_name                 Salvador R. G. Balestra
_symmetry_space_group_name_H-M     'P 1             '
_symmetry_Int_Tables_number        1

loop_
_symmetry_equiv_pos_site_id
_symmetry_equiv_pos_as_xyz
   1     +x,+y,+z                
_cell_length_a                       21.6762
_cell_length_b                       13.5402
_cell_length_c                       10.0131
_cell_angle_alpha                   90.0000
_cell_angle_beta                    90.0000
_cell_angle_gamma                   89.0866

loop_
_atom_site_label
_atom_site_type_symbol
_atom_site_fract_x
_atom_site_fract_y
_atom_site_fract_z
_atom_site_charge
  O      O         0.751559259494158    0.986171321328930    0.177288289264690  0.0000
  O      O         0.233253980333018    0.026665668998085    0.177288293289128  0.0000
  O      O         0.269412018763328    0.014490041707808    0.927558740412090  0.0000
  O      O         0.715401220037990    0.998346971128796    0.927558739244452  0.0000
  O      O         0.251559256762396    0.486171325212750    0.677288293323081  0.0000
  O      O         0.733253979044741    0.526665662903382    0.677288292472771  0.0000
  O      O         0.769412019864296    0.514490052737560    0.427558740269745  0.0000
  O      O         0.215401220610677    0.498346959943301    0.427558739946919  0.0000
  O      O         0.668403316825479    0.614720688206150    0.496191200761730  0.0000
  O      O         0.316409920667069    0.398116312479834    0.496191193715864  0.0000
  O      O         0.314292484457903    0.591312998545754    0.506117425637098  0.0000
  O      O         0.670520755526495    0.421524002126325    0.506117402259390  0.0000
  O      O         0.168403317932943    0.114720686683607    0.996191195377945  0.0000
  O      O         0.816409919521658    0.898116314152195    0.996191178978626  0.0000
  O      O         0.814292486900252    0.091312999690301    0.006117426387120  0.0000
  O      O         0.170520753808520    0.921524001293937    0.006117419437080  0.0000
  O      O         0.637414812195268    0.938354063190203    0.239455629118387  0.0000
  O      O         0.347398426562687    0.074482936738849    0.239455625386545  0.0000
  O      O         0.311469840299897    0.895606921645260    0.745867470809166  0.0000
  O      O         0.673343392119876    0.117230077359314    0.745867460461009  0.0000
  O      O         0.137414809972815    0.438354065434694    0.739455633746416  0.0000
  O      O         0.847398426418442    0.574482931249737    0.739455622624833  0.0000
  O      O         0.811469843091291    0.395606918708450    0.245867489010052  0.0000
  O      O         0.173343397327106    0.617230078854205    0.245867472111821  0.0000
  O      O         0.545100526122026    0.827793978776618    0.294308618455448  0.0000
  O      O         0.439712714669783    0.185043021478345    0.294308590348814  0.0000
  O      O         0.429581032554661    0.847735523839912    0.732635747108004  0.0000
  O      O         0.555232201788171    0.165101492141135    0.732635729973513  0.0000
  O      O         0.045100524004152    0.327793979611280    0.794308615711320  0.0000
  O      O         0.939712711636900    0.685043017334471    0.794308621452459  0.0000
  O      O         0.929581034875823    0.347735514727654    0.232635748519457  0.0000
  O      O         0.055232205604096    0.665101482993316    0.232635751429028  0.0000
  O      O         0.617151936832573    0.779770962573290    0.091766483001382  0.0000
  O      O         0.367661299486870    0.233066034577343    0.091766470827831  0.0000
  O      O         0.346955963024499    0.725318443514834    0.836351880416804  0.0000
  O      O         0.637857276622658    0.287518559904134    0.836351869732382  0.0000
  O      O         0.117151937725479    0.279770968812069    0.591766479117739  0.0000
  O      O         0.867661302583200    0.733066033085336    0.591766481574125  0.0000
  O      O         0.846955964649186    0.225318435660516    0.336351878374209  0.0000
  O      O         0.137857278284778    0.787518559712347    0.336351879326961  0.0000
  O      O         0.325368319182175    0.252549586195211    0.330972492825112  0.0000
  O      O         0.659444923935396    0.760287416171434    0.330972498770919  0.0000
  O      O         0.634231267283594    0.249183115974790    0.580249817972691  0.0000
  O      O         0.350581973328644    0.763653886950777    0.580249828436510  0.0000
  O      O         0.825368312956266    0.752549576688905    0.830972494763397  0.0000
  O      O         0.159444920160080    0.260287414934405    0.830972496173669  0.0000
  O      O         0.134231266182704    0.749183113152244    0.080249828877961  0.0000
  O      O         0.850581970011034    0.263653892732346    0.080249827672510  0.0000
  O      O         0.249916261885898    0.480087654794427    0.176409079699774  0.0000
  O      O         0.734896978228283    0.532749339047277    0.176409079277315  0.0000
  O      O         0.767708405090671    0.528772378533849    0.925892146562960  0.0000
  O      O         0.217104832435324    0.484064626765539    0.925892149207484  0.0000
  O      O         0.749916259307902    0.980087653731878    0.676409080284292  0.0000
  O      O         0.234896977065982    0.032749347336386    0.676409081084877  0.0000
  O      O         0.267708404749271    0.028772381745031    0.425892148122085  0.0000
  O      O         0.717104835327711    0.984064620766732    0.425892145759022  0.0000
  O      O         0.161122149668840    0.108786781558682    0.500870447335677  0.0000
  O      O         0.823691089289257    0.904050219812806    0.500870450167739  0.0000
  O      O         0.808783788406401    0.096741793720715    0.506809545638091  0.0000
  O      O         0.176029450776557    0.916095207496782    0.506809541272843  0.0000
  O      O         0.661122150371408    0.608786777412432    0.000870448472282  0.0000
  O      O         0.323691087478761    0.404050221523951    0.000870439295417  0.0000
  O      O         0.308783789085772    0.596741795312034    0.006809541305910  0.0000
  O      O         0.676029451263221    0.416095203139898    0.006809536278238  0.0000
  O      O         0.136476406248592    0.434031006373018    0.259960539461786  0.0000
  O      O         0.848336833994645    0.578805992284869    0.259960528894955  0.0000
  O      O         0.810715804011185    0.393496156822067    0.764038328632708  0.0000
  O      O         0.174097433457902    0.619340840018922    0.764038317676807  0.0000
  O      O         0.636476405472196    0.934031004655990    0.759960548935273  0.0000
  O      O         0.348336833268022    0.078805993843524    0.759960537795441  0.0000
  O      O         0.310715806000941    0.893496162098360    0.264038330319853  0.0000
  O      O         0.674097437825263    0.119340837065253    0.264038316422090  0.0000
  O      O         0.044320761558011    0.328080852258628    0.182293234730701  0.0000
  O      O         0.940492478874069    0.684756152222525    0.182293246844347  0.0000
  O      O         0.929372135576467    0.345968061457163    0.749891902292337  0.0000
  O      O         0.055441101950499    0.666868943598339    0.749891908452775  0.0000
  O      O         0.544320758960158    0.828080853401056    0.682293248871722  0.0000
  O      O         0.440492475071231    0.184756151667624    0.682293221209146  0.0000
  O      O         0.429372136075849    0.845968051598473    0.249891908536045  0.0000
  O      O         0.555441104599407    0.166868934443701    0.249891887910304  0.0000
  O      O         0.154206919458298    0.295965876519294    0.088652774207467  0.0000
  O      O         0.830606323108924    0.716871128740531    0.088652772543244  0.0000
  O      O         0.842991024456075    0.219601999165082    0.832154045637458  0.0000
  O      O         0.141822218816958    0.793234997885570    0.832154045700110  0.0000
  O      O         0.654206913742888    0.795965879291072    0.588652773211123  0.0000
  O      O         0.330606315620496    0.216871119826094    0.588652769309643  0.0000
  O      O         0.342991016498508    0.719602000782763    0.332154045894809  0.0000
  O      O         0.641822220168871    0.293234994522126    0.332154034074272  0.0000
  O      O         0.857567077706085    0.765926544216368    0.336871683778990  0.0000
  O      O         0.127246155119891    0.246910453675840    0.336871680752779  0.0000
  O      O         0.131161434686605    0.744848682773571    0.584011756766579  0.0000
  O      O         0.853651800803284    0.267988321704988    0.584011755290871  0.0000
  O      O         0.357567080515380    0.265926548023839    0.836871672845277  0.0000
  O      O         0.627246157973625    0.746910451199319    0.836871683122544  0.0000
  O      O         0.631161440417324    0.244848673626359    0.084011745370605  0.0000
  O      O         0.353651800022324    0.767988322977244    0.084011758194549  0.0000
  O      O         0.992406618527532    0.506418500575479    0.187678492778717  0.0000
  O      O         0.992406620381757    0.506418500788678    0.789225918579104  0.0000
  O      O         0.492406620216514    0.006418505752184    0.687678481616942  0.0000
  O      O         0.492406617089957    0.006418495407617    0.289225901793064  0.0000
  O      O         0.970205605400329    0.385397316812089    0.988744721667278  0.0000
  O      O         0.014607631547896    0.627439685469290    0.988744725236352  0.0000
  O      O         0.470205608194461    0.885397317781748    0.488744720222475  0.0000
  O      O         0.514607628398065    0.127439685174409    0.488744700987055  0.0000
  O      O         0.740264923744420    0.248844080797796    0.974628075780731  0.0000
  O      O         0.244548315953730    0.763992917463873    0.974628090057821  0.0000
  O      O         0.257879767952199    0.240570305310576    0.980146927287670  0.0000
  O      O         0.726933469495040    0.772266694469989    0.980146941171679  0.0000
  O      O         0.240264921654396    0.748844081943990    0.474628099661870  0.0000
  O      O         0.744548317357378    0.263992917267747    0.474628082022047  0.0000
  O      O         0.757879767431443    0.740570306573825    0.480146948752113  0.0000
  O      O         0.226933469125475    0.272266697502091    0.480146923515238  0.0000
  Si     Si        0.694666510057118    0.006435946235660    0.275562761788555  0.0000
  Si     Si        0.290146730396657    0.006401051632190    0.275562765351268  0.0000
  Si     Si        0.291259501483386    0.006511116840042    0.775475665044508  0.0000
  Si     Si        0.693553735288528    0.006325886115441    0.775475664778351  0.0000
  Si     Si        0.194666506969662    0.506435949970450    0.775562764737392  0.0000
  Si     Si        0.790146729931302    0.506401047446560    0.775562763407221  0.0000
  Si     Si        0.791259502746775    0.506511115659804    0.275475665989295  0.0000
  Si     Si        0.193553737512896    0.506325884198767    0.275475665165493  0.0000
  Si     Si        0.709729194267825    0.519607435011202    0.026618528959617  0.0000
  Si     Si        0.275084044583628    0.493229563981120    0.026618528592357  0.0000
  Si     Si        0.209729193677464    0.019607439897418    0.526618530618462  0.0000
  Si     Si        0.775084044821319    0.993229561510788    0.526618531332875  0.0000
  Si     Si        0.210628549161246    0.018271101500787    0.025432711732214  0.0000
  Si     Si        0.774184690065486    0.994565899381904    0.025432707911503  0.0000
  Si     Si        0.710628549174381    0.518271102606393    0.525432709219474  0.0000
  Si     Si        0.274184689255612    0.494565897420014    0.525432712911844  0.0000
  Si     Si        0.659072369230441    0.726780925928634    0.979204503147184  0.0000
  Si     Si        0.325740868178112    0.286056073247146    0.979204491838088  0.0000
  Si     Si        0.311625711699645    0.712932092093231    0.976573820647007  0.0000
  Si     Si        0.673187528292617    0.299904907119455    0.976573810097863  0.0000
  Si     Si        0.159072368495647    0.226780929815618    0.479204498654640  0.0000
  Si     Si        0.825740868702873    0.786056070988018    0.479204505329190  0.0000
  Si     Si        0.811625712268048    0.212932089371541    0.476573818933461  0.0000
  Si     Si        0.173187526742646    0.799904910583591    0.476573822523201  0.0000
  Si     Si        0.614468370898659    0.826105178343113    0.239077675771467  0.0000
  Si     Si        0.370344867162325    0.186731821640980    0.239077663719732  0.0000
  Si     Si        0.360437638102519    0.807930393539950    0.725299460825059  0.0000
  Si     Si        0.624375598972617    0.204906611370995    0.725299449657135  0.0000
  Si     Si        0.114468368770561    0.326105180457877    0.739077674200336  0.0000
  Si     Si        0.870344867898263    0.686731816199219    0.739077673801765  0.0000
  Si     Si        0.860437638961195    0.307930389871601    0.225299463728808  0.0000
  Si     Si        0.124375601055474    0.704906608933870    0.225299462252363  0.0000
  Si     Si        0.184422098409461    0.229614201402449    0.975077159949314  0.0000
  Si     Si        0.800391138923578    0.783222797986372    0.975077159164291  0.0000
  Si     Si        0.809777483377942    0.207075285909943    0.974075594696613  0.0000
  Si     Si        0.175035756577526    0.805761713982506    0.974075596540187  0.0000
  Si     Si        0.684422098098783    0.729614202826646    0.475077166593344  0.0000
  Si     Si        0.300391138871563    0.283222798333060    0.475077156256089  0.0000
  Si     Si        0.309777481026912    0.707075285491133    0.474075600003673  0.0000
  Si     Si        0.675035757935718    0.305761713970440    0.474075584512472  0.0000
  Si     Si        0.115892665530515    0.324936269669673    0.218863395271122  0.0000
  Si     Si        0.868920573155239    0.687900732026764    0.218863396472878  0.0000
  Si     Si        0.860546715938933    0.307926877564836    0.732906209953063  0.0000
  Si     Si        0.124266522302325    0.704910122506514    0.732906210102150  0.0000
  Si     Si        0.615892664110568    0.824936269274230    0.718863401433530  0.0000
  Si     Si        0.368920571888272    0.187900730896171    0.718863388751736  0.0000
  Si     Si        0.360546714493344    0.807926877491374    0.232906213436686  0.0000
  Si     Si        0.624266524766498    0.204910116703180    0.232906199744631  0.0000
  Si     Si        0.984519504078636    0.393011952545681    0.145708055124368  0.0000
  Si     Si        0.000293734404722    0.619825049197945    0.145708059508149  0.0000
  Si     Si        0.984873236918197    0.392686995654742    0.832200024801168  0.0000
  Si     Si        0.999940000715303    0.620150005801633    0.832200028341989  0.0000
  Si     Si        0.484519504304767    0.893011956126781    0.645708054768772  0.0000
  Si     Si        0.500293732951964    0.119825052834113    0.645708036482218  0.0000
  Si     Si        0.484873237611380    0.892686992295538    0.332200022608893  0.0000
  Si     Si        0.499940000000038    0.120149999999967    0.332199999999943  0.0000
