data_ReferenceDataBase/ECNU-13a
_audit_creation_method             Generated by GULP
_audit_author_name                 Salvador R. G. Balestra
_symmetry_space_group_name_H-M     'P 1             '
_symmetry_Int_Tables_number        1

loop_
_symmetry_equiv_pos_site_id
_symmetry_equiv_pos_as_xyz
   1     +x,+y,+z                
_cell_length_a                       21.8915
_cell_length_b                       12.5349
_cell_length_c                       11.4133
_cell_angle_alpha                   89.9770
_cell_angle_beta                    90.1169
_cell_angle_gamma                   90.5191

loop_
_atom_site_label
_atom_site_type_symbol
_atom_site_fract_x
_atom_site_fract_y
_atom_site_fract_z
_atom_site_charge
  O      O         0.062523167170403    0.191290688729527    0.309946922931681  0.0000
  O      O         0.366170026714880    0.331818520068390    0.273489689533073  0.0000
  O      O         0.256047857376324    0.381274832762547    0.335442049239242  0.0000
  O      O         0.149489451330807    0.322978334424970    0.257194737801385  0.0000
  O      O         0.335778407668088    0.134762224298655    0.313081191146970  0.0000
  O      O         0.332051097546334    0.207392817386762    0.098375291201146  0.0000
  O      O         0.439130892903097    0.184645972527488    0.209261493089244  0.0000
  O      O         0.115160463111362    0.183935775527523    0.102106458581401  0.0000
  O      O         0.175074254820894    0.119971282120990    0.285724316853886  0.0000
  Si     Si        0.326740208376060    0.404023903984999    0.360428688240652  0.0000
  Si     Si        0.184350042870207    0.399369461208442    0.347301602528568  0.0000
  Si     Si        0.368180008980227    0.213039298608498    0.220764056999940  0.0000
  Si     Si        0.124848151143883    0.203379379712104    0.239983735912314  0.0000
  Si     Si        0.002599173654785    0.136716267408902    0.361826073908885  0.0000
  O      O         0.341913411048219    0.377691633853751    0.495662153784198  0.0000
  O      O         0.163103037122825    0.371944313378155    0.478762432655510  0.0000
  O      O         0.257196837671524    0.979604405040001    0.340025619328695  0.0000
  Si     Si        0.327840701471642    0.013660219167128    0.353746967478826  0.0000
  Si     Si        0.187483926802461    0.013187243601980    0.358158514562010  0.0000
  O      O         0.342887038177256    0.526887559137609    0.333014095289142  0.0000
  O      O         0.167545118611304    0.520355377226433    0.315829099747678  0.0000
  O      O         0.139612692817379    0.018673661390871    0.970261187543354  0.0000
  O      O         0.308487443286244    0.017562609994767    0.012176006271461  0.0000
  O      O         0.224202182497824    0.167851947429097    0.007818460448649  0.0000
  Si     Si        0.152574083342346    0.143103233695163    0.990084961921349  0.0000
  Si     Si        0.295712025584051    0.143507599420974    0.998407852932412  0.0000
  O      O         0.350129540806233    0.003000907448869    0.486054192426977  0.0000
  O      O         0.171359083082656    0.035163530675004    0.492961359384048  0.0000
  O      O         0.469691062428296    0.130015396009765    0.000060389409767  0.0000
  O      O         0.499855760813731    0.007660976032376    0.176625585293763  0.0000
  Si     Si        0.491410393818209    0.129109083513111    0.133995045314042  0.0000
  O      O         0.009856883156809    0.010551516418261    0.350355384299229  0.0000
  O      O         0.994386830497485    0.848896237683129    0.494618594905353  0.0000
  O      O         0.927802134729228    0.866454256052984    0.302381923860076  0.0000
  O      O         0.633652483595902    0.690951117314603    0.271137974488356  0.0000
  O      O         0.741336231488614    0.646464864674375    0.351704574047977  0.0000
  O      O         0.854010399140575    0.700496121297136    0.299127538650265  0.0000
  O      O         0.644329429089996    0.889402500185963    0.330486783000194  0.0000
  O      O         0.670283936831014    0.835291596493520    0.117207551917672  0.0000
  O      O         0.555444976079974    0.823919030533050    0.193986286344642  0.0000
  O      O         0.864583822672627    0.814530172879763    0.112246511703813  0.0000
  O      O         0.810989599946556    0.897926397657420    0.293199028416264  0.0000
  Si     Si        0.669950696126358    0.619553141791784    0.363784616302202  0.0000
  Si     Si        0.811929565425438    0.624178241951483    0.377495493480196  0.0000
  Si     Si        0.626059179493172    0.811115024473083    0.225372852721603  0.0000
  Si     Si        0.865119410434698    0.819540782907061    0.252735086787341  0.0000
  Si     Si        0.993176751842044    0.886472959970197    0.359719918824564  0.0000
  O      O         0.647751537877596    0.642481318939596    0.495966331699797  0.0000
  O      O         0.826561137195707    0.648228880502484    0.512866510233483  0.0000
  O      O         0.729149841691038    0.037108839853208    0.351869684370505  0.0000
  Si     Si        0.658262891055368    0.008680639203408    0.371165422246571  0.0000
  Si     Si        0.799249476406402    0.005899530447649    0.364829856117793  0.0000
  O      O         0.656633163417014    0.496876908846137    0.331460104634469  0.0000
  O      O         0.828039539929839    0.502722611508777    0.346494442035732  0.0000
  O      O         0.850051527400418    0.001498865990502    0.021368319177990  0.0000
  O      O         0.681176896617475    0.002609694253658    0.979451919039322  0.0000
  O      O         0.765462128465287    0.852320447785309    0.983810483526881  0.0000
  Si     Si        0.837090203577678    0.877069320359376    0.001543978096230  0.0000
  Si     Si        0.693952275980140    0.876664754366563    0.993220870475259  0.0000
  O      O         0.639534353027944    0.017170954541768    0.505574854238084  0.0000
  O      O         0.818305682875009    0.985009443084296    0.498667256175388  0.0000
  O      O         0.519973541447362    0.890156771239667    0.991568245177989  0.0000
  Si     Si        0.502934242939079    0.887350538890572    0.127768513285162  0.0000
  O      O         0.995277228078943    0.171275681528815    0.497010016807085  0.0000
  O      O         0.947376075318476    0.200067629578631    0.705901386592041  0.0000
  O      O         0.623870841345261    0.295216643943461    0.707421113874346  0.0000
  O      O         0.736023917314149    0.352523713588941    0.661704852284429  0.0000
  O      O         0.846645391375470    0.306499611669435    0.730769398497628  0.0000
  O      O         0.621168100880782    0.084069205466420    0.714869540198896  0.0000
  O      O         0.666801068941222    0.193924848001620    0.890802254888609  0.0000
  O      O         0.549694444536079    0.196002333208928    0.844684944378850  0.0000
  O      O         0.877441829259245    0.166189606197279    0.888542474377065  0.0000
  O      O         0.843094680755283    0.103544218402193    0.677796175906410  0.0000
  Si     Si        0.665632297776376    0.372490995760887    0.630247561509598  0.0000
  Si     Si        0.807263577871678    0.377734735938044    0.643419470225411  0.0000
  Si     Si        0.616483226015058    0.192213119698414    0.788649298724932  0.0000
  Si     Si        0.878038448530504    0.193232764144786    0.751376450694301  0.0000
  Si     Si        0.996487751015958    0.133699140947200    0.631908761630313  0.0000
  O      O         0.653857586419809    0.346807518611373    0.493975370217589  0.0000
  O      O         0.825258912234674    0.353366478859466    0.509474618832089  0.0000
  O      O         0.732467485643016    0.040568231703445    0.651602227471892  0.0000
  Si     Si        0.661823632512366    0.006512008776504    0.637881875549251  0.0000
  Si     Si        0.802180416694880    0.006985252499780    0.633470021577400  0.0000
  O      O         0.646776912305954    0.493284587598359    0.658613465639711  0.0000
  O      O         0.822120049186116    0.499817057313318    0.675799128288586  0.0000
  O      O         0.769584391136405    0.151375936989915    0.987457478036765  0.0000
  Si     Si        0.840848960811201    0.126451937441448    0.002094382941557  0.0000
  Si     Si        0.698011129939312    0.127448345041896    0.994100441123645  0.0000
  O      O         0.489808882177956    0.012511205434989    0.815003026932692  0.0000
  Si     Si        0.486730171820846    0.132821626451865    0.863860040165114  0.0000
  O      O         0.979808186315496    0.009620422361122    0.641273776774328  0.0000
  O      O         0.042482524148207    0.841046437345492    0.706843842013257  0.0000
  O      O         0.357526334781542    0.717782499052272    0.718152657280374  0.0000
  O      O         0.246671699452316    0.667866562923672    0.649835741395215  0.0000
  O      O         0.132976636431925    0.710353116136331    0.698012770320005  0.0000
  O      O         0.371215791249107    0.926078371095900    0.689431949845504  0.0000
  O      O         0.316086460615319    0.850965207738951    0.874392816839380  0.0000
  O      O         0.435263053974168    0.825353808275215    0.843151164021921  0.0000
  O      O         0.120481665913575    0.831890092094369    0.879231620572652  0.0000
  O      O         0.152178140192482    0.916471117568000    0.676315809051295  0.0000
  Si     Si        0.318012625818328    0.645461292112280    0.630945465489989  0.0000
  Si     Si        0.176799975349151    0.640656392080815    0.618155094562991  0.0000
  Si     Si        0.369291989655776    0.829702934934260    0.781684617473538  0.0000
  Si     Si        0.112564260672999    0.826472137209430    0.739728655013343  0.0000
  Si     Si        0.987065185510837    0.883455592443332    0.629802613864094  0.0000
  O      O         0.335807864596737    0.673363905965791    0.497653259013040  0.0000
  O      O         0.164405078006140    0.666805190797445    0.482154389300053  0.0000
  O      O         0.260514274145293    0.983062646586311    0.639759829392678  0.0000
  Si     Si        0.331401182859805    0.011491233632960    0.620463680269626  0.0000
  Si     Si        0.190414754900461    0.014272720619659    0.626798888331958  0.0000
  O      O         0.333031146706751    0.523295187579630    0.660169177153718  0.0000
  O      O         0.161625643604085    0.517449778687057    0.645135411484343  0.0000
  O      O         0.220079918628018    0.868796428517547    0.004170586289962  0.0000
  Si     Si        0.148815330109913    0.893720551755794    0.989534405113913  0.0000
  Si     Si        0.291653198198483    0.892723917020332    0.997528099106196  0.0000
  Si     Si        0.498254185618533    0.891063113679429    0.857633597124494  0.0000
  O      O         0.927140951495859    0.828882017282094    0.681681724093428  0.0000
  O      O         0.623494480262441    0.688353661012894    0.718138817818962  0.0000
  O      O         0.733616600751460    0.638896285651661    0.656187407759516  0.0000
  O      O         0.840174807360397    0.697194172868982    0.734434400808190  0.0000
  O      O         0.653886327508172    0.885410020422341    0.678548014637879  0.0000
  O      O         0.657613270581949    0.812778997095116    0.893253714309237  0.0000
  O      O         0.550533634883571    0.835526175399376    0.782367051098697  0.0000
  O      O         0.874503788307848    0.836237242203627    0.889522233327090  0.0000
  O      O         0.814589840117047    0.900201029080137    0.705904100611614  0.0000
  Si     Si        0.662924256061994    0.616148228074144    0.631199804281259  0.0000
  Si     Si        0.805314478134108    0.620802856700356    0.644327330814465  0.0000
  Si     Si        0.621484524459834    0.807132779594677    0.770864724516012  0.0000
  Si     Si        0.864816033067149    0.816793231564837    0.751645041187523  0.0000
  O      O         0.061862397292529    0.153718676213087    0.689246210716422  0.0000
  O      O         0.356012188132369    0.329220912578256    0.720490316664079  0.0000
  O      O         0.248328477124873    0.373706705309645    0.639923272449095  0.0000
  O      O         0.135654357567095    0.319676316141834    0.692501501298775  0.0000
  O      O         0.345334499849050    0.130769430104801    0.661142286785294  0.0000
  O      O         0.319380314690271    0.184881422343560    0.874421397078822  0.0000
  O      O         0.434219239204636    0.196252624606454    0.797642365084732  0.0000
  O      O         0.125080469738995    0.205642098317005    0.879382240891691  0.0000
  O      O         0.178674826576158    0.122245765194409    0.698430003389565  0.0000
  Si     Si        0.319713967773326    0.400619028148442    0.627843856785847  0.0000
  Si     Si        0.177735130977788    0.395994148801149    0.614133419615925  0.0000
  Si     Si        0.363605080201569    0.209057071932137    0.766255873309844  0.0000
  Si     Si        0.124545088294289    0.200631656678441    0.738893671752834  0.0000
  O      O         0.042288387534724    0.820104193891680    0.285727456188060  0.0000
  O      O         0.365793698353591    0.724955448902513    0.284207176872630  0.0000
  O      O         0.253640638074208    0.667649656673407    0.329925375600616  0.0000
  O      O         0.143019241668361    0.713672716282062    0.260859526714000  0.0000
  O      O         0.368496363175164    0.936102904236716    0.276759670121567  0.0000
  O      O         0.322863033179807    0.826247837446840    0.100826858148126  0.0000
  O      O         0.439969781236984    0.824170315458509    0.146943189528846  0.0000
  O      O         0.112222685649170    0.853982528529362    0.103086430870377  0.0000
  O      O         0.146569615397188    0.916628051098192    0.313833015357910  0.0000
  Si     Si        0.324032333286981    0.647681255210258    0.361381116752984  0.0000
  Si     Si        0.182401004825624    0.642437697448495    0.348209632503500  0.0000
  Si     Si        0.373181116122902    0.827959274098988    0.202979370115298  0.0000
  Si     Si        0.111626035308223    0.826939421488391    0.240252467368733  0.0000
  O      O         0.947181634285702    0.179124038726965    0.284784516517028  0.0000
  O      O         0.632138421976016    0.302389525386961    0.273476104520441  0.0000
  O      O         0.742993154634245    0.352306467526050    0.341791670791280  0.0000
  O      O         0.856688421453469    0.309819211582804    0.293616802071567  0.0000
  O      O         0.618448521188069    0.094093732840352    0.302196975136929  0.0000
  O      O         0.673578078946645    0.169206427756430    0.117236149631250  0.0000
  O      O         0.554401499636229    0.194818475903762    0.148477612309484  0.0000
  O      O         0.869182435470410    0.188282947317757    0.112397006950001  0.0000
  O      O         0.837485398100958    0.103701518217915    0.315311962938055  0.0000
  Si     Si        0.671652208084123    0.374710847901141    0.360683058696083  0.0000
  Si     Si        0.812864781671750    0.379515979095366    0.373473852825176  0.0000
  Si     Si        0.620372551335971    0.190469102058105    0.209944248688576  0.0000
  Si     Si        0.877100000000041    0.193700000000035    0.251899999999978  0.0000
