data_ReferenceDataBase/ECNU-13b
_audit_creation_method             Generated by GULP
_audit_author_name                 Salvador R. G. Balestra
_symmetry_space_group_name_H-M     'P 1             '
_symmetry_Int_Tables_number        1

loop_
_symmetry_equiv_pos_site_id
_symmetry_equiv_pos_as_xyz
   1     +x,+y,+z                
_cell_length_a                       22.3058
_cell_length_b                       12.4610
_cell_length_c                       11.4542
_cell_angle_alpha                   90.0000
_cell_angle_beta                    90.0000
_cell_angle_gamma                   90.0000

loop_
_atom_site_label
_atom_site_type_symbol
_atom_site_fract_x
_atom_site_fract_y
_atom_site_fract_z
_atom_site_charge
  O      O         0.357512799999995    0.321182099999987    0.281497400000035  0.0000
  O      O         0.344454105416109    0.115481581806453    0.304822309792199  0.0000
  O      O         0.349112223412397    0.202364188267712    0.094626992868905  0.0000
  O      O         0.444855506352278    0.192397404845652    0.218842336013499  0.0000
  Si     Si        0.312302234879115    0.386667387502829    0.363358648571588  0.0000
  Si     Si        0.373611832926755    0.206723013057770    0.226035555813771  0.0000
  O      O         0.632085057012563    0.703702487105758    0.299950383556269  0.0000
  O      O         0.640051842036297    0.906642826926582    0.344993187495751  0.0000
  O      O         0.670182175208524    0.836613558958901    0.138745834943447  0.0000
  O      O         0.557587159049132    0.834673245770637    0.198563777011886  0.0000
  Si     Si        0.674537245794249    0.634419966794278    0.383799461627707  0.0000
  Si     Si        0.624354739369624    0.821459739377308    0.245343531758774  0.0000
  O      O         0.629648833769082    0.321182183747386    0.734472168974792  0.0000
  O      O         0.642707219994890    0.115481661613504    0.711146671578798  0.0000
  O      O         0.638049436625524    0.202363945994810    0.921342301523151  0.0000
  O      O         0.542306044760637    0.192397702708333    0.797127289949326  0.0000
  Si     Si        0.674859372879460    0.386667421646878    0.652610825089288  0.0000
  Si     Si        0.613549727725642    0.206723059339447    0.789933835585047  0.0000
  O      O         0.355076547131545    0.703702620039278    0.716018969220877  0.0000
  O      O         0.347109665120691    0.906642908004335    0.670976139527041  0.0000
  O      O         0.316979520644104    0.836613674915788    0.877223618986564  0.0000
  O      O         0.429574497433226    0.834673451825212    0.817405295564743  0.0000
  Si     Si        0.312624368034777    0.634420076193013    0.632169890952203  0.0000
  Si     Si        0.362806875648402    0.821459886817118    0.770625789598926  0.0000
  O      O         0.329607901989721    0.366238972821007    0.497732462843530  0.0000
  O      O         0.657553688847968    0.366238931943551    0.518237025214489  0.0000
  Si     Si        0.311893750606013    0.010917523139650    0.351600050466471  0.0000
  Si     Si        0.674878430081568    0.010917509131861    0.388597860567607  0.0000
  O      O         0.319936817059048    0.510917586814465    0.331123975672733  0.0000
  O      O         0.663991416231943    0.510917551794547    0.350997266514699  0.0000
  O      O         0.338369131196821    0.010917704945164    0.000822897863286  0.0000
  Si     Si        0.311900316127482    0.132541728402993    0.003791195340288  0.0000
  Si     Si        0.675261279980291    0.132541549503494    0.012178224650774  0.0000
  O      O         0.314686013267836    0.010917812120848    0.489449630815538  0.0000
  O      O         0.493580813385240    0.167232936011730    0.007984815430821  0.0000
  O      O         0.496033119178485    0.010917524585690    0.162950126777624  0.0000
  Si     Si        0.497861597311628    0.137935095544375    0.144599936040260  0.0000
  Si     Si        0.497861618600351    0.883899972469253    0.144599761464625  0.0000
  O      O         0.743580805496143    0.667102272611994    0.363346131201329  0.0000
  O      O         0.743580804956194    0.350230551822694    0.674696096661945  0.0000
  O      O         0.743580805273589    0.671604712193123    0.674696067776757  0.0000
  O      O         0.743580805276831    0.354732836763723    0.363346237447558  0.0000
  O      O         0.743580801772243    0.010917442709677    0.343321973805361  0.0000
  O      O         0.743580801797839    0.010918065146820    0.709523948471602  0.0000
  O      O         0.743580804783239    0.130770558108428    0.972133878116312  0.0000
  O      O         0.743580804990791    0.891064483548488    0.972133747915494  0.0000
  O      O         0.857512800151862    0.700653120663359    0.734472021294211  0.0000
  O      O         0.844454104241295    0.906353635715385    0.711147098902012  0.0000
  O      O         0.849112223567060    0.819471040323884    0.921342422848890  0.0000
  O      O         0.944855506093352    0.829437820446623    0.797127079209532  0.0000
  Si     Si        0.812302235347068    0.635167835600690    0.652610769490335  0.0000
  Si     Si        0.873611832714604    0.815112210210322    0.789933860011396  0.0000
  O      O         0.132085056152399    0.318132741966440    0.716019034745238  0.0000
  O      O         0.140051843805775    0.115192403981831    0.670976226983024  0.0000
  O      O         0.170182175030973    0.185221669191972    0.877223581787454  0.0000
  O      O         0.057587159135935    0.187161978328371    0.817405637480156  0.0000
  Si     Si        0.174537245462014    0.387415261095424    0.632169956280943  0.0000
  Si     Si        0.124354739449337    0.200375488635832    0.770625884505344  0.0000
  O      O         0.129648834757323    0.700653040628354    0.281497243731361  0.0000
  O      O         0.142707219157068    0.906353562422907    0.304822746981412  0.0000
  O      O         0.138049436772435    0.819471282169524    0.094627114140681  0.0000
  O      O         0.042306044890641    0.829437521333449    0.218842125197742  0.0000
  Si     Si        0.174859373252187    0.635167803217414    0.363358589487576  0.0000
  Si     Si        0.113549727896673    0.815112165866272    0.226035579888477  0.0000
  O      O         0.855076547372480    0.318132606451726    0.299950446189968  0.0000
  O      O         0.847109665450969    0.115192318087860    0.344993275690051  0.0000
  O      O         0.816979519892966    0.185221552166061    0.138745797777838  0.0000
  O      O         0.929574497175987    0.187161773862460    0.198564118302939  0.0000
  Si     Si        0.812624367760059    0.387415150118491    0.383799523761090  0.0000
  Si     Si        0.862806875701799    0.200375339517127    0.245343626008449  0.0000
  O      O         0.829607903245070    0.655596251777130    0.518236955895668  0.0000
  O      O         0.157553688676676    0.655596294621277    0.497732388801918  0.0000
  Si     Si        0.811893750537961    0.010917698769811    0.664369366086343  0.0000
  Si     Si        0.174878429956609    0.010917719043335    0.627371555537007  0.0000
  O      O         0.819936816998195    0.510917635730448    0.684845440611280  0.0000
  O      O         0.163991416163264    0.510917676585043    0.664972149601081  0.0000
  O      O         0.838369131275466    0.010917522640512    0.015146518685048  0.0000
  Si     Si        0.811900316479978    0.889293499111045    0.012178221575971  0.0000
  Si     Si        0.175261280090086    0.889293678282065    0.003791191037102  0.0000
  O      O         0.814686013416490    0.010917419702308    0.526519785808464  0.0000
  O      O         0.993580812041073    0.854602288766806    0.007984600911861  0.0000
  O      O         0.996033119120329    0.010917700238924    0.853019289424781  0.0000
  Si     Si        0.997861596781775    0.883900129165947    0.871369480450572  0.0000
  Si     Si        0.997861619071150    0.137935252230041    0.871369654974961  0.0000
  O      O         0.243580804978770    0.354732954885571    0.652623288800811  0.0000
  O      O         0.243580805556576    0.671604671654746    0.341273318842625  0.0000
  O      O         0.243580804823722    0.350230511192722    0.341273349600534  0.0000
  O      O         0.243580805544276    0.667102390943081    0.652623175334964  0.0000
  O      O         0.243580801600934    0.010917782753296    0.672647442673193  0.0000
  O      O         0.243580801913371    0.010917155924137    0.306445467853752  0.0000
  O      O         0.243580804873205    0.891064669581564    0.043835537350576  0.0000
  O      O         0.243580804681501    0.130770744216399    0.043835669228254  0.0000
  O      O         0.629648810371118    0.700653120563918    0.734472021223628  0.0000
  O      O         0.642707498781475    0.906353637919380    0.711147100063900  0.0000
  O      O         0.638049386728831    0.819471039056858    0.921342423221235  0.0000
  O      O         0.542306101636605    0.829437810037084    0.797127086872836  0.0000
  Si     Si        0.674859375150555    0.635167836515309    0.652610768690033  0.0000
  Si     Si        0.613549775350012    0.815112208065131    0.789933862018826  0.0000
  O      O         0.355076553964864    0.318132739243062    0.716019033086950  0.0000
  O      O         0.347109760178535    0.115192401459848    0.670976227191474  0.0000
  O      O         0.316979433754135    0.185221670750743    0.877223582407096  0.0000
  O      O         0.429574448760876    0.187161967320752    0.817405631641971  0.0000
  Si     Si        0.312624364589535    0.387415260515741    0.632169956524158  0.0000
  Si     Si        0.362806868311402    0.200375485333442    0.770625882863760  0.0000
  O      O         0.357512776442015    0.700653039604896    0.281497243998842  0.0000
  O      O         0.344454383461045    0.906353558156888    0.304822749934373  0.0000
  O      O         0.349112173205023    0.819471283053877    0.094627115409110  0.0000
  O      O         0.444855562862744    0.829437532116853    0.218842132967341  0.0000
  Si     Si        0.312302237675169    0.635167801663755    0.363358588955249  0.0000
  Si     Si        0.373611880243167    0.815112167315063    0.226035582530725  0.0000
  O      O         0.632085063343921    0.318132608711069    0.299950443995229  0.0000
  O      O         0.640051938567472    0.115192319825055    0.344993275166508  0.0000
  O      O         0.670182088963683    0.185221549997965    0.138745797885748  0.0000
  O      O         0.557587110808551    0.187161785240756    0.198564112325300  0.0000
  Si     Si        0.674537242778997    0.387415150386144    0.383799523489702  0.0000
  Si     Si        0.624354732271265    0.200375342434450    0.245343623923362  0.0000
  O      O         0.657553707571216    0.655596254915153    0.518236955300397  0.0000
  O      O         0.329607922579171    0.655596290502604    0.497732388588551  0.0000
  Si     Si        0.675267853181962    0.010917699290286    0.664369365148760  0.0000
  Si     Si        0.312283173088446    0.010917718187947    0.627371554839121  0.0000
  O      O         0.667224793328188    0.510917636421029    0.684845437590299  0.0000
  O      O         0.323170194391730    0.510917675375376    0.664972152203476  0.0000
  O      O         0.648792478235251    0.010917522572540    0.015146515886191  0.0000
  Si     Si        0.675261293414443    0.889293499328814    0.012178221035532  0.0000
  Si     Si        0.311900329681174    0.889293677753270    0.003791191113132  0.0000
  O      O         0.672475589851868    0.010917417118974    0.526519784787777  0.0000
  O      O         0.493580788840400    0.854602288867741    0.007984601656569  0.0000
  O      O         0.491128498973965    0.010917700359466    0.853019290139912  0.0000
  Si     Si        0.489300011660731    0.883900129675284    0.871369480435789  0.0000
  Si     Si        0.489299990008216    0.137935252042810    0.871369655122904  0.0000
  O      O         0.129648809582287    0.321182103869075    0.281497398018312  0.0000
  O      O         0.142707499890404    0.115481586194442    0.304822313570863  0.0000
  O      O         0.138049386156999    0.202364188812805    0.094626993143356  0.0000
  O      O         0.042306101518710    0.192397413999928    0.218842330932203  0.0000
  Si     Si        0.174859374890918    0.386667388320475    0.363358648898664  0.0000
  Si     Si        0.113549775198854    0.206723017094829    0.226035554891855  0.0000
  O      O         0.855076553988741    0.703702487232265    0.299950384735269  0.0000
  O      O         0.847109760243973    0.906642824606292    0.344993191043230  0.0000
  O      O         0.816979434388469    0.836613556465529    0.138745834348089  0.0000
  O      O         0.929574448980075    0.834673258279287    0.198563786812711  0.0000
  Si     Si        0.812624365087180    0.634419965848616    0.383799461823310  0.0000
  Si     Si        0.862806868406978    0.821459741022036    0.245343534790440  0.0000
  O      O         0.857512776045124    0.321182181305738    0.734472168348882  0.0000
  O      O         0.844454384287828    0.115481659407068    0.711146675172163  0.0000
  O      O         0.849112173239688    0.202363945626693    0.921342302471502  0.0000
  O      O         0.944855562993345    0.192397693181509    0.797127284688347  0.0000
  Si     Si        0.812302237106174    0.386667421373385    0.652610825863618  0.0000
  Si     Si        0.873611880307475    0.206723056109903    0.789933835116911  0.0000
  O      O         0.132085063923714    0.703702620371767    0.716018969767228  0.0000
  O      O         0.140051936524113    0.906642911133321    0.670976142734900  0.0000
  O      O         0.170182089074860    0.836613677874070    0.877223617634309  0.0000
  O      O         0.057587110566869    0.834673438944441    0.817405305545671  0.0000
  Si     Si        0.174537242918736    0.634420077537951    0.632169890736589  0.0000
  Si     Si        0.124354732025631    0.821459885517288    0.770625792161962  0.0000
  O      O         0.157553707669214    0.366238971608567    0.497732462882233  0.0000
  O      O         0.829607921347163    0.366238933547550    0.518237025875882  0.0000
  Si     Si        0.175267853267114    0.010917524657563    0.351600050936084  0.0000
  Si     Si        0.812283173244868    0.010917508679879    0.388597861684601  0.0000
  O      O         0.167224793427295    0.510917588220583    0.331123978603661  0.0000
  O      O         0.823170194601028    0.510917551078050    0.350997264760758  0.0000
  O      O         0.148792478190310    0.010917705191011    0.000822899766156  0.0000
  Si     Si        0.175261293133263    0.132541728482451    0.003791195608717  0.0000
  Si     Si        0.811900329444116    0.132541549746809    0.012178225481452  0.0000
  O      O         0.172475589830402    0.010917809296110    0.489449631388145  0.0000
  O      O         0.993580790312817    0.167232935880271    0.007984814751279  0.0000
  O      O         0.991128498967728    0.010917524452753    0.162950126120523  0.0000
  Si     Si        0.989300011851017    0.137935095107784    0.144599935940757  0.0000
  Si     Si        0.989299989839384    0.883899972743285    0.144599761439523  0.0000
