data_ReferenceDataBase/ECNU-13b
_audit_creation_method             Generated by GULP
_audit_author_name                 Salvador R. G. Balestra
_symmetry_space_group_name_H-M     'P 1             '
_symmetry_Int_Tables_number        1

loop_
_symmetry_equiv_pos_site_id
_symmetry_equiv_pos_as_xyz
   1     +x,+y,+z                
_cell_length_a                       22.3058
_cell_length_b                       12.4610
_cell_length_c                       11.4542
_cell_angle_alpha                   90.0000
_cell_angle_beta                    90.0000
_cell_angle_gamma                   90.0000

loop_
_atom_site_label
_atom_site_type_symbol
_atom_site_fract_x
_atom_site_fract_y
_atom_site_fract_z
_atom_site_charge
  O      O         0.357512770358316    0.321182091619192    0.281497460828126  0.0000
  O      O         0.344454292180501    0.115481560117563    0.304822739969961  0.0000
  O      O         0.349112185573293    0.202363950612664    0.094627211545040  0.0000
  O      O         0.444855533237813    0.192397572242036    0.218842329960648  0.0000
  Si     Si        0.312302204138674    0.386667291887552    0.363358780687274  0.0000
  Si     Si        0.373611855352853    0.206722982852026    0.226035715442265  0.0000
  O      O         0.632085026447452    0.703702526158009    0.299950510854987  0.0000
  O      O         0.640051905614190    0.906642801773733    0.344993414400402  0.0000
  O      O         0.670182067742577    0.836613627714914    0.138745931389400  0.0000
  O      O         0.557587092097217    0.834673455727438    0.198564211652720  0.0000
  Si     Si        0.674537210569428    0.634419983324916    0.383799580650352  0.0000
  Si     Si        0.624354701233734    0.821459813374169    0.245343727927396  0.0000
  O      O         0.629648775399373    0.321182058894176    0.734472144068753  0.0000
  O      O         0.642707420907616    0.115481536076698    0.711147155377416  0.0000
  O      O         0.638049346499890    0.202364079056366    0.921342529992154  0.0000
  O      O         0.542306057370528    0.192397417091078    0.797127235290261  0.0000
  Si     Si        0.674859355349689    0.386667281706243    0.652610870663767  0.0000
  Si     Si        0.613549730126333    0.206722965573413    0.789933974569913  0.0000
  O      O         0.355076535025183    0.703702453532226    0.716019200900288  0.0000
  O      O         0.347109693878595    0.906642751380303    0.670976306393733  0.0000
  O      O         0.316979444635651    0.836613560863205    0.877223730916444  0.0000
  O      O         0.429574438253891    0.834673361232381    0.817405633878132  0.0000
  Si     Si        0.312624346564051    0.634419921264179    0.632170130968552  0.0000
  Si     Si        0.362806850206690    0.821459735375446    0.770625997467165  0.0000
  O      O         0.329607704848045    0.366238474236913    0.497732592648159  0.0000
  O      O         0.657553862785864    0.366238500842167    0.518237051625304  0.0000
  Si     Si        0.311893724715274    0.010917576062016    0.351600149993123  0.0000
  Si     Si        0.674878413505674    0.010917584524795    0.388598030488531  0.0000
  O      O         0.319936932120710    0.510917540145884    0.331124513620847  0.0000
  O      O         0.663991162302164    0.510917565657580    0.350997717725593  0.0000
  O      O         0.338369039767326    0.010917481405910    0.000823167062003  0.0000
  Si     Si        0.311900293543189    0.132541539081221    0.003791370047935  0.0000
  Si     Si        0.675261271980589    0.132541635650641    0.012178306485504  0.0000
  O      O         0.314685984145342    0.010917432341210    0.489449727149520  0.0000
  O      O         0.493580777578668    0.167232995875628    0.007984783511169  0.0000
  O      O         0.496032995282772    0.010917577600107    0.162950060830155  0.0000
  Si     Si        0.497861573419608    0.137935145107610    0.144599908122930  0.0000
  Si     Si        0.497861558390805    0.883899999944650    0.144599999979058  0.0000
  O      O         0.743580779288004    0.667101933013778    0.363345880995940  0.0000
  O      O         0.743580779270354    0.350230636437994    0.674696530545265  0.0000
  O      O         0.743580779281050    0.671604413593433    0.674696545585865  0.0000
  O      O         0.743580779278400    0.354733195351570    0.363345828386833  0.0000
  O      O         0.743580778950080    0.010917611629917    0.343322148192219  0.0000
  O      O         0.743580778963011    0.010917288111811    0.709524107589641  0.0000
  O      O         0.743580779238468    0.130770807526601    0.972133866931523  0.0000
  O      O         0.743580779246364    0.891064352256285    0.972133937467211  0.0000
  O      O         0.857512770595580    0.700652971394679    0.734472218241854  0.0000
  O      O         0.844454291889988    0.906353503147899    0.711146941154409  0.0000
  O      O         0.849112185796609    0.819471110876656    0.921342468445656  0.0000
  O      O         0.944855533313236    0.829437490822920    0.797127349739077  0.0000
  Si     Si        0.812302204099147    0.635167770863433    0.652610899313000  0.0000
  Si     Si        0.873611855462473    0.815112079936380    0.789933964268052  0.0000
  O      O         0.132085026677915    0.318132536215143    0.716019169326997  0.0000
  O      O         0.140051905393227    0.115192260714035    0.670976264972183  0.0000
  O      O         0.170182067803956    0.185221433481443    0.877223748341320  0.0000
  O      O         0.057587092206434    0.187161607183147    0.817405468513130  0.0000
  Si     Si        0.174537210551527    0.387415078980480    0.632170099221916  0.0000
  Si     Si        0.124354701295218    0.200375248939222    0.770625951919751  0.0000
  O      O         0.129648775233984    0.700653004247645    0.281497536937473  0.0000
  O      O         0.142707421213011    0.906353527380452    0.304822522948738  0.0000
  O      O         0.138049346595412    0.819470982070484    0.094627149843225  0.0000
  O      O         0.042306057416849    0.829437646098770    0.218842444465415  0.0000
  Si     Si        0.174859355380174    0.635167781024286    0.363358809721615  0.0000
  Si     Si        0.113549730151982    0.815112097165612    0.226035705250400  0.0000
  O      O         0.855076534735972    0.318132608769385    0.299950478983477  0.0000
  O      O         0.847109694037972    0.115192310907064    0.344993373664791  0.0000
  O      O         0.816979444675758    0.185221500643584    0.138745949002228  0.0000
  O      O         0.929574438312657    0.187161701716631    0.198564046447180  0.0000
  Si     Si        0.812624346580435    0.387415141024543    0.383799549548550  0.0000
  Si     Si        0.862806850129440    0.200375327004917    0.245343682382089  0.0000
  O      O         0.829607704480630    0.655596588501894    0.518237087080842  0.0000
  O      O         0.157553863116826    0.655596561819419    0.497732628709272  0.0000
  Si     Si        0.811893724714211    0.010917487112309    0.664369530138726  0.0000
  Si     Si        0.174878413476685    0.010917477986990    0.627371649637723  0.0000
  O      O         0.819936932096343    0.510917522717360    0.684845166261418  0.0000
  O      O         0.163991162348474    0.510917496680803    0.664971962279121  0.0000
  O      O         0.838369039714547    0.010917580011351    0.015146513358737  0.0000
  Si     Si        0.811900293580185    0.889293522331961    0.012178309604085  0.0000
  Si     Si        0.175261272005606    0.889293425815478    0.003791373308027  0.0000
  O      O         0.814685984117844    0.010917629092740    0.526519952803166  0.0000
  O      O         0.993580777426564    0.854602067357517    0.007984896411704  0.0000
  O      O         0.996032995291667    0.010917485516984    0.853019619339207  0.0000
  Si     Si        0.997861573423144    0.883899918116984    0.871369771577037  0.0000
  Si     Si        0.997861558394019    0.137935063271632    0.871369679715384  0.0000
  O      O         0.243580779297749    0.354733129296256    0.652623797769901  0.0000
  O      O         0.243580779276380    0.671604426381865    0.341273149046544  0.0000
  O      O         0.243580779272726    0.350230649369566    0.341273134703179  0.0000
  O      O         0.243580779299063    0.667101867116592    0.652623852467656  0.0000
  O      O         0.243580778935075    0.010917451167642    0.672647531684033  0.0000
  O      O         0.243580778962828    0.010917775825488    0.306445572414594  0.0000
  O      O         0.243580779247741    0.891064253516601    0.043835813197711  0.0000
  O      O         0.243580779243422    0.130770708538967    0.043835742444942  0.0000
  O      O         0.629648787968175    0.700652971300292    0.734472218311843  0.0000
  O      O         0.642707266029412    0.906353503198406    0.711146941128096  0.0000
  O      O         0.638049372716989    0.819471110812339    0.921342468474706  0.0000
  O      O         0.542306024997461    0.829437489859744    0.797127350365112  0.0000
  Si     Si        0.674859354459353    0.635167770908974    0.652610899266432  0.0000
  Si     Si        0.613549702879178    0.815112079696801    0.789933964429794  0.0000
  O      O         0.355076531927647    0.318132536077517    0.716019169167210  0.0000
  O      O         0.347109652459135    0.115192260703755    0.670976264838892  0.0000
  O      O         0.316979490634106    0.185221433723566    0.877223748396663  0.0000
  O      O         0.429574466117133    0.187161606008830    0.817405467796772  0.0000
  Si     Si        0.312624348039196    0.387415079002872    0.632170099209091  0.0000
  Si     Si        0.362806857017171    0.200375248705699    0.770625951703636  0.0000
  O      O         0.357512783316264    0.700653004355842    0.281497536994658  0.0000
  O      O         0.344454136722844    0.906353527354255    0.304822522951254  0.0000
  O      O         0.349112211924284    0.819470982180841    0.094627149889587  0.0000
  O      O         0.444855500896648    0.829437647034161    0.218842445106143  0.0000
  Si     Si        0.312302203172254    0.635167780982012    0.363358809661046  0.0000
  Si     Si        0.373611828190104    0.815112097421648    0.226035705427797  0.0000
  O      O         0.632085023825506    0.318132608910981    0.299950478852146  0.0000
  O      O         0.640051863856145    0.115192310948820    0.344993373543603  0.0000
  O      O         0.670182113756606    0.185221500461826    0.138745949058891  0.0000
  O      O         0.557587120012504    0.187161702770610    0.198564045763668  0.0000
  Si     Si        0.674537211974966    0.387415141008996    0.383799549553364  0.0000
  Si     Si        0.624354708178618    0.200375327237234    0.245343682178877  0.0000
  O      O         0.657553854090724    0.655596588751210    0.518237087058663  0.0000
  O      O         0.329607695458594    0.655596561567304    0.497732628668204  0.0000
  Si     Si        0.675267833220370    0.010917487124896    0.664369530068278  0.0000
  Si     Si        0.312283144376870    0.010917477981383    0.627371649558194  0.0000
  O      O         0.667224626465520    0.510917522734665    0.684845166003810  0.0000
  O      O         0.323170396252726    0.510917496667490    0.664971962473452  0.0000
  O      O         0.648792518756314    0.010917580006181    0.015146513187794  0.0000
  Si     Si        0.675261264908220    0.889293522349922    0.012178309583519  0.0000
  Si     Si        0.311900286483090    0.889293425792890    0.003791373273748  0.0000
  O      O         0.672475573763131    0.010917629024711    0.526519952723690  0.0000
  O      O         0.493580780320629    0.854602067303253    0.007984896461861  0.0000
  O      O         0.491128564032928    0.010917485514168    0.853019619461303  0.0000
  Si     Si        0.489299984978422    0.883899918147351    0.871369771576393  0.0000
  Si     Si        0.489300000021518    0.137935063236812    0.871369679731581  0.0000
  O      O         0.129648788181146    0.321182091756938    0.281497460784586  0.0000
  O      O         0.142707265758254    0.115481560147288    0.304822740091183  0.0000
  O      O         0.138049372943533    0.202363950690990    0.094627211559615  0.0000
  O      O         0.042306025072280    0.192397573187069    0.218842329368252  0.0000
  Si     Si        0.174859354408380    0.386667291864067    0.363358780756107  0.0000
  Si     Si        0.113549702986041    0.206722983117762    0.226035715321618  0.0000
  O      O         0.855076532131402    0.703702526233767    0.299950510950660  0.0000
  O      O         0.847109652218956    0.906642801675051    0.344993414621590  0.0000
  O      O         0.816979490720291    0.836613627524838    0.138745931318291  0.0000
  O      O         0.929574466236005    0.834673456854844    0.198564212473161  0.0000
  Si     Si        0.812624348002172    0.634419983275162    0.383799580641499  0.0000
  Si     Si        0.862806857074395    0.821459813571814    0.245343728161422  0.0000
  O      O         0.857512783142041    0.321182058745320    0.734472143981688  0.0000
  O      O         0.844454137039404    0.115481536022599    0.711147155520126  0.0000
  O      O         0.849112211998066    0.202364079019663    0.921342529994937  0.0000
  O      O         0.944855500935544    0.192397416152725    0.797127234713390  0.0000
  Si     Si        0.812302203191024    0.386667281722954    0.652610870710796  0.0000
  Si     Si        0.873611828210407    0.206722965311642    0.789933974445467  0.0000
  O      O         0.132085023580505    0.703702453437373    0.716019201033769  0.0000
  O      O         0.140051863928532    0.906642751451785    0.670976306581587  0.0000
  O      O         0.170182113830799    0.836613561126875    0.877223730826160  0.0000
  O      O         0.057587120078247    0.834673360031692    0.817405634717425  0.0000
  Si     Si        0.174537212028479    0.634419921309847    0.632170130973246  0.0000
  Si     Si        0.124354708101721    0.821459735166964    0.770625997701291  0.0000
  O      O         0.157553853723331    0.366238474012611    0.497732592699001  0.0000
  O      O         0.829607695761042    0.366238501048272    0.518237051650747  0.0000
  Si     Si        0.175267833217374    0.010917576061232    0.351600150051569  0.0000
  Si     Si        0.812283144376395    0.010917584506398    0.388598030577924  0.0000
  O      O         0.167224626436694    0.510917540155365    0.331124513909571  0.0000
  O      O         0.823170396267101    0.510917565636253    0.350997717519854  0.0000
  O      O         0.148792518698217    0.010917481403746    0.000823167329535  0.0000
  Si     Si        0.175261264933758    0.132541539057492    0.003791370101864  0.0000
  Si     Si        0.811900286491132    0.132541635673033    0.012178306511935  0.0000
  O      O         0.172475573715572    0.010917432272344    0.489449727217443  0.0000
  O      O         0.993580780240621    0.167232995843465    0.007984783441220  0.0000
  O      O         0.991128563979781    0.010917577617739    0.162950060832733  0.0000
  Si     Si        0.989299984985439    0.137935145089489    0.144599908123234  0.0000
  Si     Si        0.989299999999957    0.883900000000040    0.144599999999969  0.0000
