data_ReferenceDataBase/EWF
_audit_creation_method             Generated by GULP
_audit_author_name                 Salvador R. G. Balestra
_symmetry_space_group_name_H-M     'P 1             '
_symmetry_Int_Tables_number        1

loop_
_symmetry_equiv_pos_site_id
_symmetry_equiv_pos_as_xyz
   1     +x,+y,+z                
_cell_length_a                       11.0484
_cell_length_b                       22.8145
_cell_length_c                       25.0323
_cell_angle_alpha                   89.9600
_cell_angle_beta                    90.0042
_cell_angle_gamma                   89.9898

loop_
_atom_site_label
_atom_site_type_symbol
_atom_site_fract_x
_atom_site_fract_y
_atom_site_fract_z
_atom_site_charge
  Si     Si        0.361934480794646    0.226162046444639    0.193109090352935  0.0000
  Si     Si        0.363109532869725    0.354201749885440    0.157615438255478  0.0000
  Si     Si        0.268032978879248    0.411981485735038    0.056144791986209  0.0000
  Si     Si        0.264588979506978    0.107299037205494    0.160864828407690  0.0000
  Si     Si        0.152810370152294    0.042769202577964    0.066245481437993  0.0000
  Si     Si        0.268090492815892    0.420590386335159    0.254506442991940  0.0000
  Si     Si        0.144121036314887    0.043905986948068    0.253625679159441  0.0000
  Si     Si        0.506425392523628    0.035728080674446    0.177147413706322  0.0000
  Si     Si        0.006629221295799    0.443148238027601    0.071716826877031  0.0000
  Si     Si        0.000820674826034    0.457183353651026    0.271321727710802  0.0000
  O      O         0.320298707393279    0.288165719945323    0.168934432819010  0.0000
  O      O         0.338502591629464    0.369045620503113    0.095967922762344  0.0000
  O      O         0.289619116027474    0.400051636787270    0.193918511461741  0.0000
  O      O         0.283421406219972    0.176979903792442    0.163123620256926  0.0000
  O      O         0.216158952421359    0.091700981463137    0.102395506906796  0.0000
  O      O         0.165863400155913    0.087763955101479    0.204537176177528  0.0000
  O      O         0.306560435934407    0.395493818092369    0.996206038732764  0.0000
  O      O         0.210294351027829    0.979873854008127    0.080133987077049  0.0000
  O      O         0.124051180439655    0.402315405674104    0.062876824357853  0.0000
  O      O         0.390751668929452    0.076491503444570    0.173309652103055  0.0000
  O      O         0.331340500882847    0.224894217362037    0.255539918335865  0.0000
  O      O         0.195765136826494    0.980766678568331    0.236916353963288  0.0000
  O      O         0.125523173255796    0.422716533256068    0.264896729550222  0.0000
  O      O         0.503892809401643    0.361375216344279    0.171308522550187  0.0000
  O      O         0.503276047370968    0.214718772256276    0.183011360270863  0.0000
  O      O         0.517114634039085    0.015671684112172    0.238574470875692  0.0000
  O      O         0.494984363326692    0.978919781470306    0.139887504476887  0.0000
  O      O         0.011399720544254    0.039773458721197    0.078374021859564  0.0000
  O      O         0.003157955372583    0.040599301791575    0.266710625027872  0.0000
  O      O         0.507468751231068    0.995619410348557    0.036265641953901  0.0000
  Si     Si        0.652519019039608    0.739928083266155    0.693456169184672  0.0000
  Si     Si        0.650738873450431    0.611886426179091    0.657822419395209  0.0000
  Si     Si        0.745087666655609    0.553803299977901    0.556432024701749  0.0000
  Si     Si        0.750764447550027    0.859146376369891    0.662011601238042  0.0000
  Si     Si        0.863576489667907    0.923328855695498    0.567236402285961  0.0000
  Si     Si        0.745049680259382    0.544662858390884    0.754529655780347  0.0000
  Si     Si        0.874713560271195    0.921065074591555    0.754255588057296  0.0000
  Si     Si        0.510472252812239    0.932008518851843    0.678314347901059  0.0000
  Si     Si        0.006195252268023    0.522211239365624    0.571727366779696  0.0000
  Si     Si        0.012485973881834    0.508513334815218    0.771226453877756  0.0000
  O      O         0.694476358340749    0.677717583836818    0.669716339603087  0.0000
  O      O         0.675860704381222    0.597265420464796    0.596168982596092  0.0000
  O      O         0.723287568512157    0.565517953313410    0.694024711001389  0.0000
  O      O         0.729385030486956    0.789563285933244    0.663231817833495  0.0000
  O      O         0.798366359344616    0.875110316830500    0.603513202186001  0.0000
  O      O         0.851228802699198    0.876867742925365    0.705570993494900  0.0000
  O      O         0.705892153002524    0.570014682712715    0.496505563632359  0.0000
  O      O         0.807291082093136    0.986626854174297    0.580392250823556  0.0000
  O      O         0.889235685597410    0.563295260438783    0.562658221403017  0.0000
  O      O         0.627111858979600    0.891641601609895    0.675801860491396  0.0000
  O      O         0.683431555083849    0.742055591679424    0.755888541949205  0.0000
  O      O         0.807343516676715    0.981499535760742    0.740649824452594  0.0000
  O      O         0.887655893760899    0.543020519251286    0.765092380495801  0.0000
  O      O         0.509629698944405    0.604884751928448    0.670987842813590  0.0000
  O      O         0.511192527817162    0.750640040383943    0.683230729233200  0.0000
  O      O         0.498243318422787    0.953875928931763    0.739066779506858  0.0000
  O      O         0.520206469453866    0.988227336632420    0.640068083611120  0.0000
  O      O         0.004858093868854    0.925451576065159    0.579834854930139  0.0000
  O      O         0.015531377201641    0.932618762966719    0.761391246874272  0.0000
  O      O         0.508305741000260    0.967312814370534    0.537493538119390  0.0000
  Si     Si        0.367942933818144    0.749330968983105    0.816374911260022  0.0000
  Si     Si        0.366237479306204    0.621305398961888    0.850063175155256  0.0000
  Si     Si        0.264643612433487    0.545488054175877    0.942594534135113  0.0000
  Si     Si        0.266850931187697    0.866003554846304    0.856318659902533  0.0000
  Si     Si        0.148334009727845    0.918287746331687    0.951985941980250  0.0000
  Si     Si        0.263369713535217    0.552578637035912    0.754052035906235  0.0000
  Si     Si        0.157241282176971    0.924733344921718    0.753708340267049  0.0000
  Si     Si        0.508970088426194    0.931282009635843    0.877387409892293  0.0000
  Si     Si        0.003005184726252    0.510957865720839    0.965619302733787  0.0000
  O      O         0.346082310785395    0.691007042007568    0.851095697956354  0.0000
  O      O         0.289131928884159    0.592540587935624    0.896958008889277  0.0000
  O      O         0.327301582442675    0.599050109880174    0.792108209512846  0.0000
  O      O         0.277485186511772    0.798603531064296    0.838630704934388  0.0000
  O      O         0.174204000434517    0.870439760077701    0.906149078972236  0.0000
  O      O         0.218435873690485    0.905993655764746    0.808755017633126  0.0000
  O      O         0.337595770284994    0.562470980093189    0.995991503496565  0.0000
  O      O         0.208238907745398    0.979365164488176    0.932633340733002  0.0000
  O      O         0.121586110746525    0.548440706737278    0.952642688637767  0.0000
  O      O         0.396913938878408    0.887955133960113    0.874754919534696  0.0000
  O      O         0.337286804629927    0.737297927131622    0.754807519151117  0.0000
  O      O         0.214243511221701    0.985990252879970    0.734760144165513  0.0000
  O      O         0.119153140059811    0.555458966085447    0.762487899369687  0.0000
  O      O         0.504874885278933    0.604109938824099    0.859104334556444  0.0000
  O      O         0.506952354480189    0.769875554935354    0.821588841007839  0.0000
  O      O         0.493577517222619    0.987238203106370    0.838856703637998  0.0000
  O      O         0.520561634505190    0.953327625425299    0.938182008065889  0.0000
  O      O         0.006378481835786    0.926945288323808    0.961581999948716  0.0000
  Si     Si        0.644081557668255    0.215902229349730    0.317280982426355  0.0000
  Si     Si        0.645779240671758    0.344358400534610    0.350355240465453  0.0000
  Si     Si        0.748420221132155    0.420244568400980    0.442720508821856  0.0000
  Si     Si        0.748915166207048    0.099507292317925    0.356726030308852  0.0000
  Si     Si        0.867419825354839    0.045523362155229    0.451303783858144  0.0000
  Si     Si        0.749857548645151    0.413487250317077    0.254661526709279  0.0000
  Si     Si        0.861814804155928    0.043011446016063    0.254142889266419  0.0000
  Si     Si        0.506833176484051    0.035127827477009    0.380303883956529  0.0000
  Si     Si        0.010301066944640    0.454516376163480    0.465658048244466  0.0000
  O      O         0.665482996390728    0.274639741249633    0.351344331131499  0.0000
  O      O         0.722422848213711    0.373020374244577    0.397434014220292  0.0000
  O      O         0.685380417057293    0.366942958116767    0.292553507382411  0.0000
  O      O         0.734849528181396    0.167268576562299    0.340587744892695  0.0000
  O      O         0.846176048609473    0.093306242818710    0.404725278497152  0.0000
  O      O         0.790584237228350    0.061186943402920    0.306879729932299  0.0000
  O      O         0.676530790457298    0.403536122349985    0.496433856743911  0.0000
  O      O         0.805064312831098    0.984747884813757    0.432616632018563  0.0000
  O      O         0.891732429685018    0.417227948663362    0.452148521658319  0.0000
  O      O         0.622734486240326    0.075774989084517    0.377728659829961  0.0000
  O      O         0.675536219847861    0.227144005356303    0.255649070400007  0.0000
  O      O         0.813081697388079    0.980073712032254    0.235215280599038  0.0000
  O      O         0.894059427212138    0.410174962818817    0.263046177011840  0.0000
  O      O         0.506983557264830    0.361375490237980    0.359082017897072  0.0000
  O      O         0.504957446380884    0.195138993503468    0.322137610354272  0.0000
  O      O         0.512196561173251    0.981742945230884    0.338536823304738  0.0000
  O      O         0.498400643025934    0.009792696615416    0.439921714701592  0.0000
  O      O         0.008761327070724    0.034919460089126    0.461676152025768  0.0000
  Si     Si        0.646028583904982    0.749085322255920    0.817282910313160  0.0000
  Si     Si        0.644396161303451    0.618983496166598    0.849383375721974  0.0000
  Si     Si        0.743672956542914    0.547071993508375    0.944206982841143  0.0000
  Si     Si        0.753473083432021    0.864680579483029    0.855909947706261  0.0000
  Si     Si        0.863391375457922    0.921010746508643    0.953010698419058  0.0000
  O      O         0.666808621997701    0.688184030080804    0.847608659874434  0.0000
  O      O         0.719937622651951    0.593830665314657    0.898393070660833  0.0000
  O      O         0.684092742929177    0.591152234099709    0.793615284179400  0.0000
  O      O         0.733080873369411    0.796121328289108    0.845213728524116  0.0000
  O      O         0.831471313873349    0.871404142532248    0.909891861083231  0.0000
  O      O         0.827551008676687    0.893744127911003    0.808608984171582  0.0000
  O      O         0.668886693852212    0.563341215666485    0.997185907863698  0.0000
  O      O         0.809998547114807    0.982995473702605    0.932381846722423  0.0000
  O      O         0.886257791394941    0.550966376601007    0.955678410399786  0.0000
  O      O         0.626339179830241    0.896504013602194    0.860028032390692  0.0000
  Si     Si        0.366063617977100    0.216365492271363    0.317053848642987  0.0000
  Si     Si        0.367598677740475    0.346111626287196    0.349484641737705  0.0000
  Si     Si        0.269473576663433    0.418219898433898    0.444226734750513  0.0000
  Si     Si        0.263627156252353    0.100262001620433    0.355784729546345  0.0000
  Si     Si        0.150801735658633    0.043116650125913    0.451381376860938  0.0000
  O      O         0.345422878056469    0.276811078882897    0.348131515483916  0.0000
  O      O         0.292038703754139    0.371377058907535    0.398406665510094  0.0000
  O      O         0.327686887329385    0.373560362520894    0.293542234172862  0.0000
  O      O         0.275889592471514    0.168976144196907    0.342891249480745  0.0000
  O      O         0.173742480569042    0.091712936533150    0.405934634051537  0.0000
  O      O         0.213908506107367    0.065364160294233    0.305490927237471  0.0000
  O      O         0.345105668947445    0.402015747318161    0.497037124458904  0.0000
  O      O         0.208212939305825    0.981547858893285    0.431781648435610  0.0000
  O      O         0.127087198037789    0.414414951952420    0.456190738454686  0.0000
  O      O         0.393538160979425    0.075716020783626    0.370024613739322  0.0000
  Si     Si        0.644555610618940    0.226193839645133    0.193117243546540  0.0000
  Si     Si        0.644167656771408    0.353603559734093    0.156936436193081  0.0000
  Si     Si        0.742147237965832    0.414291590755116    0.057885731016906  0.0000
  Si     Si        0.747289276359661    0.107588653915046    0.159702600335549  0.0000
  Si     Si        0.869778553433416    0.045217536133731    0.067385350127664  0.0000
  O      O         0.686061323592700    0.287248806380090    0.167099506312836  0.0000
  O      O         0.669001379427993    0.370263244245093    0.095734344243749  0.0000
  O      O         0.719831493125903    0.398054188649386    0.193637584201547  0.0000
  O      O         0.721963185484635    0.176470470730383    0.163732432873268  0.0000
  O      O         0.813445837018360    0.095984442324110    0.103762126508639  0.0000
  O      O         0.836413317657612    0.088924584443470    0.207291662958802  0.0000
  O      O         0.706777579897992    0.398745388425579    0.997529865146737  0.0000
  O      O         0.807860849050519    0.983632454760680    0.082981458854004  0.0000
  O      O         0.885550743353336    0.404331118906206    0.066095053886490  0.0000
  O      O         0.622737670690074    0.072608019796512    0.161784045991949  0.0000
  Si     Si        0.369663389570427    0.739446897783061    0.692422069722830  0.0000
  Si     Si        0.369477951553819    0.612405673175079    0.656158629652501  0.0000
  Si     Si        0.271026654343718    0.550965072832947    0.557636272914866  0.0000
  Si     Si        0.271167262530434    0.859140549529092    0.660184227131074  0.0000
  Si     Si        0.146170316862288    0.921351334959635    0.567647697627577  0.0000
  O      O         0.327825955246458    0.678957245393141    0.665424240253020  0.0000
  O      O         0.345012470450176    0.595029520831264    0.595099279427691  0.0000
  O      O         0.293119084343514    0.568414060316865    0.693084873239215  0.0000
  O      O         0.294318551453304    0.790005945652131    0.663194638631556  0.0000
  O      O         0.205653804442372    0.871819534521602    0.604374069960355  0.0000
  O      O         0.183500967931081    0.877018705870792    0.708509434881195  0.0000
  O      O         0.305144263171996    0.566444863545037    0.497089338405396  0.0000
  O      O         0.205948151217208    0.983755108288118    0.581692847477613  0.0000
  O      O         0.127724001636145    0.560750584797191    0.566353461480978  0.0000
  O      O         0.396443669343396    0.893364986197899    0.663139613874971  0.0000
  Si     Si        0.867643984702442    0.714757550235869    0.191866494832474  0.0000
  Si     Si        0.869458368211118    0.843629218133199    0.162773859685872  0.0000
  Si     Si        0.770577019613123    0.917110050993898    0.069388296154915  0.0000
  Si     Si        0.769376130463244    0.597130141943981    0.153010085567245  0.0000
  Si     Si        0.645135176839596    0.543278001625460    0.057826870434133  0.0000
  Si     Si        0.766058395603686    0.917179515273034    0.255292894507886  0.0000
  Si     Si        0.661042639146549    0.543186202371683    0.255542479015086  0.0000
  Si     Si        0.008274773463001    0.528129138869320    0.167155426058169  0.0000
  Si     Si        0.505496073617314    0.947377621287608    0.082826331948521  0.0000
  Si     Si        0.510232060619399    0.959696268623867    0.277751838105480  0.0000
  O      O         0.843318002838851    0.774403781939426    0.159227674723545  0.0000
  O      O         0.843947306837598    0.871540490145688    0.105307354697514  0.0000
  O      O         0.784555953584485    0.871734313874484    0.207558080628143  0.0000
  O      O         0.779564348954571    0.665349734901163    0.168089698282632  0.0000
  O      O         0.700531099351767    0.592392728757384    0.096632091870324  0.0000
  O      O         0.690207080534478    0.560724464907493    0.195145335178951  0.0000
  O      O         0.800787537919474    0.902627897028637    0.008273296352650  0.0000
  O      O         0.709506181182890    0.481584469693386    0.070679715451850  0.0000
  O      O         0.627546968677083    0.908854012281692    0.080213296701434  0.0000
  O      O         0.902598965587262    0.570524243395574    0.147849601431301  0.0000
  O      O         0.834678842465665    0.725390361089648    0.253322555558697  0.0000
  O      O         0.702740758664990    0.477846733492864    0.268659381812629  0.0000
  O      O         0.623980697043378    0.917316663929860    0.268453608017613  0.0000
  O      O         0.008282838858212    0.854892231873674    0.179624111199645  0.0000
  O      O         0.006878296373900    0.694718362533947    0.185948874257613  0.0000
  O      O         0.986051466276669    0.509441401314735    0.228381029601510  0.0000
  O      O         0.013024204722926    0.470725796286483    0.130515376711247  0.0000
  O      O         0.503326907559756    0.536346262129006    0.067387860063096  0.0000
  O      O         0.519749249467224    0.547977793627215    0.267070034360077  0.0000
  O      O         0.006005676685136    0.494437079058766    0.027749582046936  0.0000
  Si     Si        0.145594205636563    0.250826047277675    0.691749208711034  0.0000
  Si     Si        0.145496965382924    0.122671101926300    0.660384166820622  0.0000
  Si     Si        0.245217624857391    0.049710846667498    0.567076517705110  0.0000
  Si     Si        0.243947241248273    0.368713091395463    0.653017501814199  0.0000
  Si     Si        0.368473007568671    0.422018122787831    0.557723307103441  0.0000
  Si     Si        0.251138919145366    0.050772649061122    0.753698638895573  0.0000
  Si     Si        0.352582419142758    0.422899135042936    0.755195255498846  0.0000
  Si     Si        0.004480788758606    0.437266079940845    0.667299022362718  0.0000
  Si     Si        0.509823744178977    0.017804874231863    0.582090930415512  0.0000
  Si     Si        0.503899507882721    0.009884748596620    0.778221364578164  0.0000
  O      O         0.169443338544835    0.192091585170625    0.657845255090381  0.0000
  O      O         0.173090220887182    0.096208189991255    0.602537764251461  0.0000
  O      O         0.231128023805644    0.094372315883857    0.704732952855889  0.0000
  O      O         0.233409114033728    0.300679986616723    0.668620479316435  0.0000
  O      O         0.312464704857162    0.372989999667555    0.596518151842645  0.0000
  O      O         0.323720891861068    0.405245625459842    0.694807221719013  0.0000
  O      O         0.215012624560237    0.063813941306119    0.505724041271348  0.0000
  O      O         0.304128146133890    0.483728055813226    0.570408455294322  0.0000
  O      O         0.388475939153319    0.056684612998556    0.577792218611870  0.0000
  O      O         0.110921221497821    0.395486205516153    0.647796374816117  0.0000
  O      O         0.179453747358116    0.238791860910405    0.752954708998492  0.0000
  O      O         0.311736373681153    0.488400251906132    0.767898031641396  0.0000
  O      O         0.392837643512232    0.053737630955815    0.767748951376143  0.0000
  O      O         0.007235914009470    0.109814414967025    0.677107115184534  0.0000
  O      O         0.006086225641286    0.270607205946943    0.686490391621088  0.0000
  O      O         0.026738486740223    0.456166674510222    0.728425245355631  0.0000
  O      O         0.998316614555234    0.494575719771397    0.630504622391757  0.0000
  O      O         0.510167918329818    0.428836131008348    0.567600727517978  0.0000
  O      O         0.493672754127433    0.417645125096477    0.767073452504991  0.0000
  O      O         0.006363176362278    0.470961604244302    0.527775133411377  0.0000
  Si     Si        0.867818353599555    0.240248577428424    0.817099107499691  0.0000
  Si     Si        0.867322556671835    0.112744242887000    0.854691271740276  0.0000
  Si     Si        0.771269749517615    0.047529968047698    0.953027594885098  0.0000
  Si     Si        0.764288481688812    0.357932705270336    0.849205143104940  0.0000
  Si     Si        0.648175210585603    0.420720781419381    0.942512282200030  0.0000
  Si     Si        0.766211194929332    0.046440804565283    0.756433204613039  0.0000
  Si     Si        0.634650308013782    0.417231376376373    0.754314020527754  0.0000
  Si     Si        0.005338891318102    0.428097653161038    0.869999667352987  0.0000
  Si     Si        0.511286414639234    0.011761269061468    0.974094435538331  0.0000
  O      O         0.823774338280427    0.177333653739576    0.838092490669168  0.0000
  O      O         0.797218605267762    0.095231124864033    0.908085366254324  0.0000
  O      O         0.841420468996544    0.067637462735102    0.807266073165611  0.0000
  O      O         0.796482889979098    0.289331423936702    0.850548782412251  0.0000
  O      O         0.674767323086777    0.371899902721749    0.898145491649064  0.0000
  O      O         0.699419929274832    0.372104324436158    0.793764981635096  0.0000
  O      O         0.846532869839324    0.062437436988898    0.006150125311092  0.0000
  O      O         0.706342509361255    0.482315165311761    0.923924246764930  0.0000
  O      O         0.628558761940812    0.051726303832269    0.964699933231582  0.0000
  O      O         0.884340839131946    0.396089776871049    0.852659806053335  0.0000
  O      O         0.833927628099811    0.245355162777258    0.755164426579875  0.0000
  O      O         0.687453678829808    0.481497968185715    0.764033540040733  0.0000
  O      O         0.624672616635650    0.047562262283440    0.770326773808731  0.0000
  O      O         0.008154431148190    0.110628571894395    0.867460043420501  0.0000
  O      O         0.010151062566127    0.248519993134257    0.826000661134000  0.0000
  O      O         0.026764917658920    0.482500115912900    0.830415044868223  0.0000
  O      O         0.995370221370166    0.452081181975590    0.930167565631235  0.0000
  O      O         0.505949929308837    0.429858742509384    0.950451809111315  0.0000
  Si     Si        0.147004182042952    0.725426512744379    0.316584007273517  0.0000
  Si     Si        0.149656496368906    0.852552836450680    0.354754198278730  0.0000
  Si     Si        0.244647120300402    0.916959293495297    0.453344972429820  0.0000
  Si     Si        0.249237989674760    0.607529503507025    0.348822634807934  0.0000
  Si     Si        0.364723312013507    0.544533674330690    0.442274266595702  0.0000
  Si     Si        0.248950296500682    0.918704641764895    0.255815722393778  0.0000
  Si     Si        0.378853609289323    0.547809251876832    0.254191417548867  0.0000
  Si     Si        0.008039379082177    0.537544998968062    0.370103678311189  0.0000
  Si     Si        0.505258548696887    0.951133050812875    0.475256803899436  0.0000
  O      O         0.192542378219611    0.788158793057560    0.337337790021600  0.0000
  O      O         0.217358324942906    0.868624251399171    0.409150032828496  0.0000
  O      O         0.179798089598941    0.898846192764291    0.308771579297656  0.0000
  O      O         0.218835771275213    0.676296040818770    0.349804911260430  0.0000
  O      O         0.338770359030284    0.593267809296751    0.397697098499626  0.0000
  O      O         0.313063662339290    0.592862265026730    0.293289515381536  0.0000
  O      O         0.168230547296138    0.903457108806156    0.506488445450576  0.0000
  O      O         0.306934821142773    0.482883674355870    0.423633571144691  0.0000
  O      O         0.387205343704056    0.911862313461068    0.465268727308618  0.0000
  O      O         0.128121352625653    0.570245393821676    0.352618434297771  0.0000
  O      O         0.178996729321444    0.720441278379340    0.254475711099630  0.0000
  O      O         0.327133478694829    0.483382625690987    0.264333625507633  0.0000
  O      O         0.391235284645783    0.921561512009216    0.267398252601531  0.0000
  O      O         0.008440228268242    0.854819182294543    0.366276556925345  0.0000
  O      O         0.004850283384429    0.717352332075771    0.326294046542363  0.0000
  O      O         0.987368243699999    0.483191909969736    0.330486263845637  0.0000
  O      O         0.019100372440654    0.513415662409196    0.430215619045431  0.0000
  O      O         0.506905006801084    0.535582038346377    0.450592208902126  0.0000
  Si     Si        0.151390227000904    0.237710007860547    0.815660276067675  0.0000
  Si     Si        0.148703267389993    0.111044296906747    0.853941617025478  0.0000
  Si     Si        0.247861902264953    0.044264888212591    0.951487549560973  0.0000
  Si     Si        0.241238783121815    0.356344587109651    0.850993947465761  0.0000
  Si     Si        0.364591051773986    0.419350313044868    0.941541882733213  0.0000
  O      O         0.194543615052140    0.175589277644936    0.838577338063142  0.0000
  O      O         0.219377070420855    0.091297910001514    0.906392203303171  0.0000
  O      O         0.171828316891284    0.067523568707845    0.804908336913146  0.0000
  O      O         0.228958975476517    0.286475694652426    0.846626132476427  0.0000
  O      O         0.342132024181899    0.371946526390248    0.895214152044517  0.0000
  O      O         0.278278949020095    0.379989287626431    0.793299972016403  0.0000
  O      O         0.175950497331425    0.060667036960955    0.005162753552381  0.0000
  O      O         0.302758666572616    0.480425347116667    0.923461032374084  0.0000
  O      O         0.391327258308865    0.048091220729696    0.960691986776822  0.0000
  O      O         0.113623121872298    0.382429180508639    0.868626365413793  0.0000
  Si     Si        0.863501735249230    0.727793239560433    0.315871003356938  0.0000
  Si     Si        0.867256021218359    0.854335254046407    0.354607864309196  0.0000
  Si     Si        0.768392304008931    0.919709062289484    0.452511778128874  0.0000
  Si     Si        0.771939048758736    0.609558034895092    0.351444683561450  0.0000
  Si     Si        0.648247530667809    0.546304140001878    0.441762771253751  0.0000
  O      O         0.820679097014791    0.790390516137564    0.337777946294214  0.0000
  O      O         0.799387112839222    0.871980832621124    0.408397343515283  0.0000
  O      O         0.840715605631221    0.900048918862843    0.307660316103526  0.0000
  O      O         0.786133225205397    0.679417043955778    0.347568771893578  0.0000
  O      O         0.670768246383075    0.593976359298991    0.395582443647979  0.0000
  O      O         0.734081730209158    0.586581014456224    0.293635430626530  0.0000
  O      O         0.841314125837247    0.905007293088003    0.506269582886825  0.0000
  O      O         0.710294876798298    0.485333871723064    0.423565782500694  0.0000
  O      O         0.625017630775449    0.914478882969032    0.461948774773774  0.0000
  O      O         0.898851584972753    0.582650490111316    0.368969452027617  0.0000
  Si     Si        0.146585084791818    0.713696325325115    0.192511155254266  0.0000
  Si     Si        0.147571016663848    0.843453193522866    0.163649961188749  0.0000
  Si     Si        0.245236498013326    0.912933915034718    0.067113066752728  0.0000
  Si     Si        0.254838636178071    0.597036152918613    0.155487443944846  0.0000
  Si     Si        0.361729827544056    0.541874800647647    0.056488040558205  0.0000
  O      O         0.173992943351491    0.774334580609787    0.162281495337263  0.0000
  O      O         0.174446935112747    0.868753121757870    0.105313257562350  0.0000
  O      O         0.231469965602318    0.873458225125123    0.207771707914933  0.0000
  O      O         0.233226017268515    0.665518302689955    0.165993888508325  0.0000
  O      O         0.302334525084398    0.589869517066301    0.095280467780424  0.0000
  O      O         0.356827633368439    0.570081318152967    0.194221196247793  0.0000
  O      O         0.209517698757476    0.896783046473340    0.006781538029187  0.0000
  O      O         0.300009815428615    0.479462079410618    0.068197654469406  0.0000
  O      O         0.389500376557098    0.905223184044216    0.075254226069100  0.0000
  O      O         0.133146717409808    0.561842693135738    0.165503216602840  0.0000
  Si     Si        0.866547876174144    0.251348177469713    0.693147825267864  0.0000
  Si     Si        0.867159195932321    0.121326381767059    0.662848797323824  0.0000
  Si     Si        0.770021876409304    0.052970237890116    0.566052588478828  0.0000
  Si     Si        0.758597597723130    0.367848832015038    0.655740000439897  0.0000
  Si     Si        0.651918841592098    0.423838338094684    0.556913462727324  0.0000
  O      O         0.839193008768323    0.190259780050578    0.663870802106435  0.0000
  O      O         0.838224042778499    0.098469330787788    0.603877216255620  0.0000
  O      O         0.785535054745927    0.088290555156434    0.705996592442000  0.0000
  O      O         0.779928500131431    0.299231227439505    0.665990009766635  0.0000
  O      O         0.711584932474958    0.375668593292855    0.595519642879136  0.0000
  O      O         0.656457899169919    0.394545083190420    0.694494108930122  0.0000
  O      O         0.806652874226650    0.068479956290785    0.505655867295244  0.0000
  O      O         0.712609286356287    0.486420387144517    0.568975419279043  0.0000
  O      O         0.625506859589619    0.059783168430696    0.573271077299108  0.0000
  O      O         0.880499999999984    0.402759999999944    0.666119999999978  0.0000
