data_ReferenceDataBase/GAM-3
_audit_creation_method             Generated by GULP
_audit_author_name                 Salvador R. G. Balestra
_symmetry_space_group_name_H-M     'P 1             '
_symmetry_Int_Tables_number        1

loop_
_symmetry_equiv_pos_site_id
_symmetry_equiv_pos_as_xyz
   1     +x,+y,+z                
_cell_length_a                       15.2685
_cell_length_b                       17.7330
_cell_length_c                       14.8393
_cell_angle_alpha                   90.0000
_cell_angle_beta                    90.0000
_cell_angle_gamma                   90.0000

loop_
_atom_site_label
_atom_site_type_symbol
_atom_site_fract_x
_atom_site_fract_y
_atom_site_fract_z
_atom_site_charge
  Si     Si        0.607773151465344    0.865113557612478    0.252162456938933  0.0000
  Si     Si        0.710202361854606    0.091408840690372    0.052523046104087  0.0000
  Si     Si        0.305772937760474    0.730050229517725    0.256323441386967  0.0000
  Si     Si        0.805772915297503    0.230050229791727    0.089656764703879  0.0000
  Si     Si        0.607773153062145    0.146312688351796    0.219170963531437  0.0000
  Si     Si        0.710202369432913    0.920017400134882    0.085477004911287  0.0000
  O      O         0.671476796642580    0.910692114677768    0.185145842121417  0.0000
  O      O         0.736977267550982    0.005713123486971    0.069000040529459  0.0000
  O      O         0.634251913180967    0.890468434004677    0.018708637513003  0.0000
  O      O         0.230460119606084    0.770503962522659    0.195256678720969  0.0000
  O      O         0.285539912278415    0.740922294671909    0.028590006740479  0.0000
  O      O         0.634251958488761    0.120957838816067    0.119291443337238  0.0000
  O      O         0.299800961816821    0.640941881016899    0.232198706587390  0.0000
  O      O         0.799800942734447    0.140941888923711    0.065531984787721  0.0000
  O      O         0.896010964652362    0.273918697881222    0.065647906879436  0.0000
  O      O         0.396010985936186    0.773918695670444    0.232314573767948  0.0000
  O      O         0.671476782393633    0.100734129029886    0.286187587987626  0.0000
  O      O         0.507999999969490    0.123826418571342    0.235666699829934  0.0000
  Si     Si        0.408226846894692    0.146312688373495    0.252162436161132  0.0000
  Si     Si        0.305797623343924    0.920017403021990    0.052523043633604  0.0000
  Si     Si        0.710227068185008    0.281376010407411    0.256323451763691  0.0000
  Si     Si        0.210227077315471    0.781376014679593    0.089656764948813  0.0000
  Si     Si        0.408226848476458    0.865113557648816    0.219170942734946  0.0000
  Si     Si        0.305797630519205    0.091408848323391    0.085476981382603  0.0000
  O      O         0.344523217523701    0.100734129042259    0.185145811738282  0.0000
  O      O         0.279022732761103    0.005713124516862    0.069000024761320  0.0000
  O      O         0.381748075127491    0.120957820192472    0.018708601035532  0.0000
  O      O         0.785539873656960    0.240922261740675    0.195256683317088  0.0000
  O      O         0.730460087362659    0.270503977222399    0.028590025767893  0.0000
  O      O         0.381748050511520    0.890468409944611    0.119291419742076  0.0000
  O      O         0.716199048701982    0.370484357226168    0.232198714779329  0.0000
  O      O         0.216199041273248    0.870484362704353    0.065532022081520  0.0000
  O      O         0.119989032842731    0.737507543609839    0.065647899967179  0.0000
  O      O         0.619989013165225    0.237507550053786    0.232314597964800  0.0000
  O      O         0.344523203356234    0.910692114703798    0.286187557602840  0.0000
  O      O         0.507999999984169    0.887599825041757    0.235666699804304  0.0000
  Si     Si        0.908226835323656    0.365113556821432    0.052504263513691  0.0000
  Si     Si        0.805797620194302    0.591408844636569    0.252143687610097  0.0000
  Si     Si        0.210227055757771    0.230050231486921    0.048343279577669  0.0000
  Si     Si        0.710227062165922    0.730050229504224    0.215009958304134  0.0000
  Si     Si        0.908226849581583    0.646312692767419    0.085495795991528  0.0000
  Si     Si        0.805797626085041    0.420017398792375    0.219189720153267  0.0000
  O      O         0.844523205530943    0.410692126327465    0.119520883457173  0.0000
  O      O         0.779022736344005    0.505713121083532    0.235666703889556  0.0000
  O      O         0.881748071486864    0.390468413018851    0.285958084167325  0.0000
  O      O         0.285539883012882    0.270503957280038    0.109410036034795  0.0000
  O      O         0.230460126339682    0.240922261717465    0.276076716412101  0.0000
  O      O         0.881748064170602    0.620957835618735    0.185375323950191  0.0000
  O      O         0.216199044812692    0.140941881081919    0.072467995144677  0.0000
  O      O         0.716199038127498    0.640941881011357    0.239134693122397  0.0000
  O      O         0.619989013972931    0.773918695634893    0.239018825878427  0.0000
  O      O         0.119989010580324    0.273918695180692    0.072352167303857  0.0000
  O      O         0.844523177789961    0.600734147102210    0.018479196757036  0.0000
  O      O         0.007999999006178    0.623826425896709    0.069000011328752  0.0000
  Si     Si        0.107773157677698    0.646312684520755    0.052504264998510  0.0000
  Si     Si        0.210202373889529    0.420017398780489    0.252143679591403  0.0000
  Si     Si        0.805772934596160    0.781376013262428    0.048343286382537  0.0000
  Si     Si        0.305772931787927    0.281376010417419    0.215009947955646  0.0000
  Si     Si        0.107773143506237    0.365113558119981    0.085495786730760  0.0000
  Si     Si        0.210202379747735    0.591408844623949    0.219189712113394  0.0000
  O      O         0.171476796625211    0.600734117516927    0.119520877050210  0.0000
  O      O         0.236977263614020    0.505713121079137    0.235666695847827  0.0000
  O      O         0.134251935777295    0.620957835598607    0.285958075769808  0.0000
  O      O         0.730460108039443    0.740922286026499    0.109410045373528  0.0000
  O      O         0.785539880280813    0.770503962560121    0.276076720987719  0.0000
  O      O         0.134251928481632    0.390468412993125    0.185375315575513  0.0000
  O      O         0.799800949036826    0.870484363795238    0.072467999520899  0.0000
  O      O         0.299800951270919    0.370484357231315    0.239134684959262  0.0000
  O      O         0.396010986812633    0.237507550072365    0.239018801712795  0.0000
  O      O         0.896010983825385    0.737507555789261    0.072352174902288  0.0000
  O      O         0.171476804323055    0.410692114686956    0.018479185132676  0.0000
  O      O         0.007999993395374    0.387599819330494    0.069000000495975  0.0000
  Si     Si        0.607773157314105    0.865113590006789    0.585495832159816  0.0000
  Si     Si        0.710202369371234    0.091408848308447    0.385856418351216  0.0000
  Si     Si        0.305772939357538    0.730050239846796    0.589656783740459  0.0000
  Si     Si        0.805772944177955    0.230050231473198    0.422990120149381  0.0000
  Si     Si        0.607773183266729    0.146312666923866    0.552504345787398  0.0000
  Si     Si        0.710202376540542    0.920017402999342    0.418810356079176  0.0000
  O      O         0.671476766269880    0.910692142782812    0.518479180388818  0.0000
  O      O         0.736977267103183    0.005713124499806    0.402333374948790  0.0000
  O      O         0.634251949390772    0.890468409882479    0.352041979956636  0.0000
  O      O         0.230460096468318    0.770503943887291    0.528590026153953  0.0000
  O      O         0.285539891927558    0.740922286056881    0.361923354325544  0.0000
  O      O         0.634251924765243    0.120957820176633    0.452624798690505  0.0000
  O      O         0.299800985703752    0.640941890177003    0.565532051243611  0.0000
  O      O         0.799800955094930    0.140941881059817    0.398865404621215  0.0000
  O      O         0.896010989361036    0.273918695157406    0.398981232373310  0.0000
  O      O         0.396010975768285    0.773918721401869    0.565647915519637  0.0000
  O      O         0.671476907025713    0.100734112268608    0.619520892026266  0.0000
  O      O         0.508000041145138    0.123826412887365    0.569000213109040  0.0000
  Si     Si        0.408226857335854    0.146312667965707    0.585495825829284  0.0000
  Si     Si        0.305797630580735    0.920017400145315    0.385856394819676  0.0000
  Si     Si        0.710227091878439    0.281376012949313    0.589656802097355  0.0000
  Si     Si        0.210227065374330    0.781376013269492    0.422990113327522  0.0000
  Si     Si        0.408226842385126    0.865113584152210    0.552504302504976  0.0000
  Si     Si        0.305797638144515    0.091408840703994    0.418810353619835  0.0000
  O      O         0.344523294991204    0.100734082585979    0.518479161433032  0.0000
  O      O         0.279022732469679    0.005713123493317    0.402333359203337  0.0000
  O      O         0.381748041490809    0.120957838856401    0.352041956369336  0.0000
  O      O         0.785539916099147    0.240922296026187    0.528590033699444  0.0000
  O      O         0.730460116921584    0.270503957249377    0.361923363691578  0.0000
  O      O         0.381748086831971    0.890468434019698    0.452624762211754  0.0000
  O      O         0.716199026252188    0.370484359346722    0.565532044420379  0.0000
  O      O         0.216199050962498    0.870484363807695    0.398865400222488  0.0000
  O      O         0.119989016138957    0.737507555802773    0.398981224773294  0.0000
  O      O         0.619989049205409    0.237507528092933    0.565647971573599  0.0000
  O      O         0.344523137823685    0.910692135499461    0.619520869934933  0.0000
  O      O         0.507999986750589    0.887599842978234    0.569000140510181  0.0000
  Si     Si        0.908226856461956    0.365113558103397    0.385837612994907  0.0000
  Si     Si        0.805797590339996    0.591408845013763    0.585477018157102  0.0000
  Si     Si        0.210227084673827    0.230050229775634    0.381676635019163  0.0000
  Si     Si        0.710227060055468    0.730050246203673    0.548343311666589  0.0000
  Si     Si        0.908226842262146    0.646312684578307    0.418829134700818  0.0000
  Si     Si        0.805797599380849    0.420017405679363    0.552523043347859  0.0000
  O      O         0.844523195662576    0.410692114642246    0.452854214621051  0.0000
  O      O         0.779022692079692    0.505713128530095    0.568999999704178  0.0000
  O      O         0.881748036684185    0.390468436265059    0.619291425226890  0.0000
  O      O         0.285539912565043    0.270503977268548    0.442743373965078  0.0000
  O      O         0.230460094646104    0.240922287408337    0.609410020298842  0.0000
  O      O         0.881748033938172    0.620957839068861    0.518708658207883  0.0000
  O      O         0.216199057261079    0.140941888917494    0.405801414959913  0.0000
  O      O         0.716199015987423    0.640941896310451    0.572468049232274  0.0000
  O      O         0.619989029900695    0.773918728585981    0.572352209058091  0.0000
  O      O         0.119989035293393    0.273918697829670    0.405685492799839  0.0000
  O      O         0.844523203304631    0.600734117540863    0.351812522677725  0.0000
  O      O         0.008000000914782    0.623826425932686    0.402333388353069  0.0000
  Si     Si        0.107773150352527    0.646312692777352    0.385837603709582  0.0000
  Si     Si        0.210202427181502    0.420017411892418    0.585477005264784  0.0000
  Si     Si        0.805772922607063    0.781376014691015    0.381676634753448  0.0000
  Si     Si        0.305772951108258    0.281376009809763    0.548343293037426  0.0000
  Si     Si        0.107773164642252    0.365113556763716    0.418829136206493  0.0000
  Si     Si        0.210202413143568    0.591408847049707    0.552523030702621  0.0000
  O      O         0.171476822106509    0.600734147122358    0.452854202971734  0.0000
  O      O         0.236977329896103    0.505713122736725    0.568999959220847  0.0000
  O      O         0.134251961134960    0.620957787428879    0.619291416009837  0.0000
  O      O         0.730460087703219    0.740922294606532    0.442743392981392  0.0000
  O      O         0.785539918345633    0.770503957421899    0.609410045769585  0.0000
  O      O         0.134251982998889    0.390468398850714    0.518708658472652  0.0000
  O      O         0.799800958615617    0.870484362701968    0.405801377663670  0.0000
  O      O         0.299801000149165    0.370484356045079    0.572468050148476  0.0000
  O      O         0.396010985487907    0.237507524281038    0.572352159093548  0.0000
  O      O         0.896010967109355    0.737507543659463    0.405685499676394  0.0000
  O      O         0.171476794452306    0.410692126299814    0.351812516291909  0.0000
  O      O         0.008000006584296    0.387599819292141    0.402333399225185  0.0000
  Si     Si        0.607773157571137    0.865113584176406    0.918829097223739  0.0000
  Si     Si        0.710202503668574    0.091408854147204    0.719189727810603  0.0000
  Si     Si        0.305772939900491    0.730050246223653    0.922990088055721  0.0000
  Si     Si        0.805773006496611    0.230050265985882    0.756323471333331  0.0000
  Si     Si        0.607773142633936    0.146312667909290    0.885837573902356  0.0000
  Si     Si        0.710202466710698    0.920017415137286    0.752143700686082  0.0000
  O      O         0.671476862093792    0.910692135564859    0.851812529778801  0.0000
  O      O         0.736977403478221    0.005713133589636    0.735666734852482  0.0000
  O      O         0.634252010423108    0.890468464769008    0.685375331236621  0.0000
  O      O         0.230460081559670    0.770503957358015    0.861923353955422  0.0000
  O      O         0.285539888909072    0.740922294077910    0.695256695985018  0.0000
  O      O         0.634252045846287    0.120957835063517    0.785958074072089  0.0000
  O      O         0.299800983995363    0.640941896313780    0.898865350558195  0.0000
  O      O         0.799801069874304    0.140941916897374    0.732198711133935  0.0000
  O      O         0.896011042415258    0.273918776358137    0.732314654106749  0.0000
  O      O         0.396010970029959    0.773918728637967    0.898981190603659  0.0000
  O      O         0.671476705028866    0.100734082569371    0.952854238279808  0.0000
  O      O         0.507999958826310    0.123826412849704    0.902333186727144  0.0000
  Si     Si        0.408226816691383    0.146312666891420    0.918829053940695  0.0000
  Si     Si        0.305797533251550    0.920017415144255    0.719189699030746  0.0000
  Si     Si        0.710227048864909    0.281376009794130    0.922990106688838  0.0000
  Si     Si        0.210227034488967    0.781376000860548    0.756323438674079  0.0000
  Si     Si        0.408226842630373    0.865113590069731    0.885837567576413  0.0000
  Si     Si        0.305797496283951    0.091408854149301    0.752143671906091  0.0000
  O      O         0.344523092990218    0.100734112181163    0.851812507680176  0.0000
  O      O         0.279022596464252    0.005713133607384    0.735666664741631  0.0000
  O      O         0.381747954067986    0.120957835161292    0.685375325655120  0.0000
  O      O         0.785539905394643    0.240922287482667    0.861923379439932  0.0000
  O      O         0.730460180527209    0.270503983244480    0.695256708775016  0.0000
  O      O         0.381747989572542    0.890468464882972    0.785958068501348  0.0000
  O      O         0.716198999787008    0.370484356046769    0.898865349637550  0.0000
  O      O         0.216198973758282    0.870484349985681    0.732198696138296  0.0000
  O      O         0.119989009678774    0.737507504900842    0.732314563897382  0.0000
  O      O         0.619989014513429    0.237507524231691    0.898981240567960  0.0000
  O      O         0.344523233604679    0.910692142794215    0.952854219320389  0.0000
  O      O         0.508000013194397    0.887599843018376    0.902333259321562  0.0000
  Si     Si        0.908226857016216    0.365113641510393    0.719170965066474  0.0000
  Si     Si        0.805797586726738    0.591408847069154    0.918810369025956  0.0000
  Si     Si        0.210226993488345    0.230050265983895    0.715009928404421  0.0000
  Si     Si        0.710227060567786    0.730050239858188    0.881676615980864  0.0000
  Si     Si        0.908226845335973    0.646312642018084    0.752162461846145  0.0000
  Si     Si        0.805797572748685    0.420017411909747    0.885856394458177  0.0000
  O      O         0.844523172967135    0.410692190228379    0.786187556014369  0.0000
  O      O         0.779022670002702    0.505713122754688    0.902333440435135  0.0000
  O      O         0.881748016953285    0.390468398943792    0.952624741264430  0.0000
  O      O         0.285539819408037    0.270503983323980    0.776076690970355  0.0000
  O      O         0.230460083881818    0.240922295999888    0.942743366031392  0.0000
  O      O         0.881748038711250    0.620957787524856    0.852041983734086  0.0000
  O      O         0.216198930088564    0.140941916913544    0.739134688693947  0.0000
  O      O         0.716199014171852    0.640941890193814    0.905801348524697  0.0000
  O      O         0.619989024171441    0.773918721434611    0.905685484153603  0.0000
  O      O         0.119988957552451    0.273918776348091    0.739018745533359  0.0000
  O      O         0.844523190080007    0.600734089518791    0.685145851065988  0.0000
  O      O         0.007999999976976    0.623826374325981    0.735666699955788  0.0000
  Si     Si        0.107773154610563    0.646312641977326    0.719170937910518  0.0000
  Si     Si        0.210202400682119    0.420017405665721    0.918810356424494  0.0000
  Si     Si        0.805772965462962    0.781376000876209    0.715009961050906  0.0000
  Si     Si        0.305772908114851    0.281376012943148    0.881676597650994  0.0000
  Si     Si        0.107773142996989    0.365113641484691    0.752162434704946  0.0000
  Si     Si        0.210202409656094    0.591408844991198    0.885856381571218  0.0000
  O      O         0.171476809943738    0.600734089521457    0.786187548650751  0.0000
  O      O         0.236977307965501    0.505713128514272    0.902333399983839  0.0000
  O      O         0.134251966021883    0.620957838972777    0.952624741511733  0.0000
  O      O         0.730460111064450    0.740922294048087    0.776076703740097  0.0000
  O      O         0.785539903465101    0.770503943911564    0.942743373560446  0.0000
  O      O         0.134251963436472    0.390468436166633    0.852041974533424  0.0000
  O      O         0.799801026207331    0.870484349987853    0.739134703653390  0.0000
  O      O         0.299800973807325    0.370484359325644    0.905801355437310  0.0000
  O      O         0.396010950770594    0.237507528049151    0.905685428087738  0.0000
  O      O         0.896010990287627    0.737507504930679    0.739018835766352  0.0000
  O      O         0.171476826935563    0.410692190264938    0.685145843701888  0.0000
  O      O         0.008000000000038    0.387600000000020    0.735666700000024  0.0000
