data_ReferenceDataBase/ITQ-69
_audit_creation_method             Generated by GULP
_audit_author_name                 Salvador R. G. Balestra
_symmetry_space_group_name_H-M     'P 1             '
_symmetry_Int_Tables_number        1

loop_
_symmetry_equiv_pos_site_id
_symmetry_equiv_pos_as_xyz
   1     +x,+y,+z                
_cell_length_a                       16.9351
_cell_length_b                       18.1867
_cell_length_c                       19.0364
_cell_angle_alpha                   87.7261
_cell_angle_beta                    66.6388
_cell_angle_gamma                   86.4914

loop_
_atom_site_label
_atom_site_type_symbol
_atom_site_fract_x
_atom_site_fract_y
_atom_site_fract_z
_atom_site_charge
  Si     Si        0.340798713507420    0.469871617513557    0.435760634250841  0.0000
  Si     Si        0.159201297415369    0.030128349355965    0.064239383700858  0.0000
  Si     Si        0.302388317629161    0.341081700385232    0.038740086765407  0.0000
  Si     Si        0.197611662577952    0.158918252507162    0.461259958565219  0.0000
  Si     Si        0.333349205634824    0.423695528437885    0.160653597321772  0.0000
  Si     Si        0.166650859511585    0.076304443619631    0.339346376477606  0.0000
  Si     Si        0.258475986089242    0.423663133368982    0.334093864983964  0.0000
  Si     Si        0.241524139009558    0.076336763018305    0.165906110945278  0.0000
  Si     Si        0.162612848099984    0.324533870452435    0.474021301906246  0.0000
  Si     Si        0.337387170107054    0.175466100303568    0.025978680593013  0.0000
  Si     Si        0.021140805928543    0.438795287339142    0.052789053626936  0.0000
  Si     Si        0.478859166397945    0.061204696135531    0.447210984324163  0.0000
  O      O         0.249999738983516    0.999999710195125    0.999999714469556  0.0000
  O      O         0.365375777441609    0.393765262440055    0.471624920833812  0.0000
  O      O         0.134624189496693    0.106234761084965    0.028375208762666  0.0000
  O      O         0.211633738017194    0.336098872789266    0.030300066690783  0.0000
  O      O         0.288366241351103    0.163901105934473    0.469699969580913  0.0000
  O      O         0.350360729484310    0.261233226109512    0.031780391342202  0.0000
  O      O         0.149639243494736    0.238766735865909    0.468219683766973  0.0000
  O      O         0.285851565860026    0.376762312461615    0.120010875918347  0.0000
  O      O         0.214148443247875    0.123237657538720    0.379989154725910  0.0000
  O      O         0.436229258584558    0.411432767947013    0.121040417146566  0.0000
  O      O         0.063770809031628    0.088567243330106    0.378959488773313  0.0000
  O      O         0.301249891469869    0.394973699326685    0.247921034127386  0.0000
  O      O         0.198750251363596    0.105026244590080    0.252078925392029  0.0000
  O      O         0.331997118816242    0.455188884365684    0.356805300790868  0.0000
  O      O         0.168003018889691    0.044810960242976    0.143194686208718  0.0000
  O      O         0.186765989905636    0.488964741786461    0.343584066280348  0.0000
  O      O         0.313234147660306    0.011035171146674    0.156415933983591  0.0000
  O      O         0.217004718487001    0.355229044705029    0.389080775999929  0.0000
  O      O         0.282995376749673    0.144770841092495    0.110919182624887  0.0000
  O      O         0.069374720620119    0.366252248298559    0.005984676132778  0.0000
  O      O         0.430625293808603    0.133747780101837    0.494015291717425  0.0000
  O      O         0.084862962971088    0.473329172970301    0.085346053226783  0.0000
  O      O         0.415137037474936    0.026670804099267    0.414653960687684  0.0000
  O      O         0.000000081707090    0.999999972426456    0.999999968103661  0.0000
  Si     Si        0.340798794908698    0.469871554980803    0.935760566099753  0.0000
  Si     Si        0.159201218414643    0.030128382423241    0.564239493052937  0.0000
  Si     Si        0.302388077166394    0.341081661956513    0.538740104952056  0.0000
  Si     Si        0.197611877546424    0.158918320351298    0.961259961288362  0.0000
  Si     Si        0.333349020392395    0.423695475462420    0.660653595809732  0.0000
  Si     Si        0.166651019914024    0.076304483850180    0.839346421844651  0.0000
  Si     Si        0.258476106402223    0.423663165324561    0.834093853973567  0.0000
  Si     Si        0.241523949702604    0.076336785462215    0.665906166886894  0.0000
  Si     Si        0.162613003321234    0.324533927927242    0.974021392189069  0.0000
  Si     Si        0.337386988295437    0.175466052505414    0.525978629513521  0.0000
  Si     Si        0.021140831967976    0.438795281971041    0.552788951565499  0.0000
  Si     Si        0.478859142104943    0.061204671727975    0.947211052854226  0.0000
  O      O         0.250000266312263    0.000000283071368    0.500000253501035  0.0000
  O      O         0.365376044568063    0.393765280795913    0.971624871994591  0.0000
  O      O         0.134623971541372    0.106234648248337    0.528375166539764  0.0000
  O      O         0.211633498633135    0.336098928535026    0.530300029589062  0.0000
  O      O         0.288366471711308    0.163901106347878    0.969699986556649  0.0000
  O      O         0.350360476562766    0.261233191333969    0.531780375158404  0.0000
  O      O         0.149639473050235    0.238766794447013    0.968219668465910  0.0000
  O      O         0.285851345663592    0.376762238954127    0.620010911914894  0.0000
  O      O         0.214148622762329    0.123237723008808    0.879989163158786  0.0000
  O      O         0.436229075507857    0.411432744509130    0.621040376770710  0.0000
  O      O         0.063770963895448    0.088567220473473    0.878959598190979  0.0000
  O      O         0.301249776136938    0.394973660011303    0.747921038519373  0.0000
  O      O         0.198750318482617    0.105026305318938    0.752078978558318  0.0000
  O      O         0.331997488488423    0.455188751155404    0.856805105437120  0.0000
  O      O         0.168002536098298    0.044811220257144    0.643194944649961  0.0000
  O      O         0.186766202671564    0.488964857764435    0.843584102920481  0.0000
  O      O         0.313233857919466    0.011035093121438    0.656415910098044  0.0000
  O      O         0.217004761142392    0.355229167054141    0.889080872732324  0.0000
  O      O         0.282995284386497    0.144770785044315    0.610919144851155  0.0000
  O      O         0.069374599101417    0.366252300490453    0.505984371914620  0.0000
  O      O         0.430625448922034    0.133747738814577    0.994015496454782  0.0000
  O      O         0.084863317004556    0.473328829692041    0.585345817805912  0.0000
  O      O         0.415136696627388    0.026671139032566    0.914654131796530  0.0000
  O      O         0.000000284182540    0.000000323032683    0.500000127603784  0.0000
  Si     Si        0.340798740979238    0.969871585514044    0.435760695151924  0.0000
  Si     Si        0.159201267355501    0.530128381445088    0.064239330484392  0.0000
  Si     Si        0.302388327114579    0.841081703317192    0.038740111996073  0.0000
  Si     Si        0.197611678746409    0.658918267457653    0.461259916631118  0.0000
  Si     Si        0.333349290672099    0.923695528596873    0.160653594189480  0.0000
  Si     Si        0.166650806951394    0.576304376507037    0.339346420354016  0.0000
  Si     Si        0.258476022643191    0.923663205230363    0.334093869752182  0.0000
  Si     Si        0.241524003096955    0.576336762020739    0.165906140326026  0.0000
  Si     Si        0.162612909816014    0.824533882527608    0.474021288651072  0.0000
  Si     Si        0.337387115182390    0.675466087854123    0.025978716914071  0.0000
  Si     Si        0.021140913223240    0.938795343259197    0.052789017521298  0.0000
  Si     Si        0.478859098993029    0.561204626319495    0.447210982032926  0.0000
  O      O         0.249999778041921    0.499999642925457    0.999999851249028  0.0000
  O      O         0.365375850756311    0.893765183772838    0.471624884625564  0.0000
  O      O         0.134624184283129    0.606234756372637    0.028375086366526  0.0000
  O      O         0.211633760313677    0.836098893625499    0.030300059001141  0.0000
  O      O         0.288366246330944    0.663901098116719    0.469699961272250  0.0000
  O      O         0.350360700567556    0.761233210848678    0.031780419649618  0.0000
  O      O         0.149639311058587    0.738766762516228    0.468219574392868  0.0000
  O      O         0.285851610618250    0.876762316764187    0.120010896567968  0.0000
  O      O         0.214148431271538    0.623237622451152    0.379989136055937  0.0000
  O      O         0.436229344630149    0.911432730310846    0.121040394874400  0.0000
  O      O         0.063770761052927    0.588567090082547    0.378959645238883  0.0000
  O      O         0.301249982925377    0.894973742365045    0.247921045685436  0.0000
  O      O         0.198750078213717    0.605026191601798    0.252078978622600  0.0000
  O      O         0.331997117987515    0.955188976433917    0.356805349041957  0.0000
  O      O         0.168002871693394    0.544811032454154    0.143194678658423  0.0000
  O      O         0.186766030651945    0.988964799036558    0.343584010421918  0.0000
  O      O         0.313233995796660    0.511035163395054    0.156415975922019  0.0000
  O      O         0.217004757678867    0.855229122754833    0.389080788725163  0.0000
  O      O         0.282995283402345    0.644770843428583    0.110919222467500  0.0000
  O      O         0.069374786312247    0.866252308509731    0.005984603867171  0.0000
  O      O         0.430625216596549    0.633747641690370    0.494015427206385  0.0000
  O      O         0.084863028497555    0.973329076260788    0.085346183533133  0.0000
  O      O         0.415136979352273    0.526670888987604    0.414653831305816  0.0000
  O      O         0.999999419043956    0.499999627918032    0.000000049543118  0.0000
  Si     Si        0.340798812626098    0.969871556273389    0.935760571262883  0.0000
  Si     Si        0.159201185908955    0.530128416945751    0.564239418683059  0.0000
  Si     Si        0.302388146820710    0.841081604730334    0.538740099195737  0.0000
  Si     Si        0.197611888413838    0.658918355613754    0.961259897097238  0.0000
  Si     Si        0.333349118254256    0.923695480715818    0.660653546703517  0.0000
  Si     Si        0.166650950728845    0.576304470035341    0.839346456155825  0.0000
  Si     Si        0.258476193903745    0.923663183576631    0.834093808721310  0.0000
  Si     Si        0.241523831964170    0.576336754772056    0.665906191428849  0.0000
  Si     Si        0.162613059446848    0.824533967480206    0.974021350089201  0.0000
  Si     Si        0.337386950364305    0.675465996256980    0.525978668787527  0.0000
  Si     Si        0.021140953180179    0.938795327308500    0.552788934475994  0.0000
  Si     Si        0.478859103461500    0.561204669424902    0.947211060832704  0.0000
  O      O         0.250000223261050    0.500000418809381    0.500000101904865  0.0000
  O      O         0.365376049755452    0.893765296401078    0.971624912227552  0.0000
  O      O         0.134623925182094    0.606234718110807    0.528375155608190  0.0000
  O      O         0.211633572181712    0.836098852672566    0.530300023797696  0.0000
  O      O         0.288366450958967    0.663901096611440    0.969699990010187  0.0000
  O      O         0.350360523395193    0.761233121840199    0.531780399393722  0.0000
  O      O         0.149639502655036    0.738766835939903    0.968219626248836  0.0000
  O      O         0.285851448256548    0.876762208491129    0.620010887522232  0.0000
  O      O         0.214148634418982    0.623237762525698    0.879989090097444  0.0000
  O      O         0.436229181247644    0.911432772389414    0.621040290107996  0.0000
  O      O         0.063770905968799    0.588567168443867    0.878959768788710  0.0000
  O      O         0.301249905588470    0.894973676960877    0.747920990325364  0.0000
  O      O         0.198750104265409    0.605026257209208    0.752079010569682  0.0000
  O      O         0.331997577116384    0.955188735315988    0.856805080476083  0.0000
  O      O         0.168002491973031    0.544811144687915    0.643194896428362  0.0000
  O      O         0.186766287748311    0.988964863719067    0.843584020817132  0.0000
  O      O         0.313233760051794    0.511035096232002    0.656415990687888  0.0000
  O      O         0.217004847502353    0.855229179696290    0.889080828398530  0.0000
  O      O         0.282995147978118    0.644770770889369    0.610919184314708  0.0000
  O      O         0.069374651234785    0.866252291272191    0.505984423629955  0.0000
  O      O         0.430625382635457    0.633747709497867    0.994015547534607  0.0000
  O      O         0.084863372149276    0.973328737811359    0.585345988543432  0.0000
  O      O         0.415136678290432    0.526671144036790    0.914654105358456  0.0000
  O      O         0.999999400408038    0.500000063298950    0.500000372218412  0.0000
  Si     Si        0.840798681323191    0.469871560830104    0.435760552789157  0.0000
  Si     Si        0.659201352207454    0.030128371932957    0.064239370388161  0.0000
  Si     Si        0.802388301620022    0.341081643457846    0.038739955582681  0.0000
  Si     Si        0.697611693079119    0.158918267088268    0.461259943872644  0.0000
  Si     Si        0.833349097750981    0.423695451173109    0.160653580214246  0.0000
  Si     Si        0.666650870336134    0.076304477018323    0.339346368656199  0.0000
  Si     Si        0.758475928218367    0.423663140575815    0.334093847452040  0.0000
  Si     Si        0.741523989760069    0.076336794387745    0.165906108408903  0.0000
  Si     Si        0.662612869838173    0.324533878192271    0.474021366122216  0.0000
  Si     Si        0.837387100255630    0.175466026773891    0.025978583323182  0.0000
  Si     Si        0.521140954464222    0.438795278452775    0.052788945676063  0.0000
  Si     Si        0.978859154468266    0.061204650816035    0.447210961245592  0.0000
  O      O         0.750000399827096    0.000000230855217    0.000000179089759  0.0000
  O      O         0.865375876699912    0.393765248099104    0.471624828347700  0.0000
  O      O         0.634624093503566    0.106234635656141    0.028375057762393  0.0000
  O      O         0.711633689828318    0.336098820831198    0.030299970324051  0.0000
  O      O         0.788366276640328    0.163901101759508    0.469699955700066  0.0000
  O      O         0.850360693705710    0.261233156880101    0.031780261123249  0.0000
  O      O         0.649639279632356    0.238766747343311    0.468219681220260  0.0000
  O      O         0.785851571878956    0.376762244007141    0.120010746089905  0.0000
  O      O         0.714148475094225    0.123237678553852    0.379989136430145  0.0000
  O      O         0.936229168670075    0.411432664419614    0.121040539527790  0.0000
  O      O         0.563770816813424    0.088567280096531    0.378959501698082  0.0000
  O      O         0.801249651660194    0.394973632373309    0.247921035165083  0.0000
  O      O         0.698750267532105    0.105026295500455    0.252078923330240  0.0000
  O      O         0.831997228476273    0.455188795780626    0.356805153011107  0.0000
  O      O         0.668002630141588    0.044811193870728    0.143194838823497  0.0000
  O      O         0.686765997698088    0.488964811454827    0.343584072215969  0.0000
  O      O         0.813233904513234    0.011035115837854    0.156415894004364  0.0000
  O      O         0.717004631137254    0.355229112503827    0.389080845645759  0.0000
  O      O         0.782995316406087    0.144770814034514    0.110919109725535  0.0000
  O      O         0.569374662351498    0.366252193652707    0.005984551359455  0.0000
  O      O         0.930625297267749    0.133747716477465    0.494015303475648  0.0000
  O      O         0.584863319107167    0.473328866810696    0.085345914306569  0.0000
  O      O         0.915137033642508    0.026670795699985    0.414653903967337  0.0000
  O      O         0.500000096225539    0.999999955626455    0.999999961715926  0.0000
  Si     Si        0.840798808668063    0.469871594035001    0.935760527492562  0.0000
  Si     Si        0.659201246982174    0.030128362225411    0.564239425547845  0.0000
  Si     Si        0.802388201598548    0.341081654867181    0.538740049110648  0.0000
  Si     Si        0.697611798515979    0.158918252502762    0.961259873211993  0.0000
  Si     Si        0.833349159016104    0.423695445007100    0.660653582198786  0.0000
  Si     Si        0.666650869714157    0.076304444117794    0.839346372724831  0.0000
  Si     Si        0.758475945864208    0.423663162248195    0.834093842313295  0.0000
  Si     Si        0.741523958965813    0.076336802875757    0.665906123944885  0.0000
  Si     Si        0.662612947425094    0.324533846939340    0.974021311646567  0.0000
  Si     Si        0.837387027115583    0.175466054093216    0.525978609349306  0.0000
  Si     Si        0.521140818535791    0.438795304147272    0.552788996359522  0.0000
  Si     Si        0.978859220520745    0.061204608575062    0.947210938243618  0.0000
  O      O         0.750000241256241    0.000000238584376    0.500000130228975  0.0000
  O      O         0.865375983606453    0.393765186306316    0.971624676777885  0.0000
  O      O         0.634623997808923    0.106234650127848    0.528375139475402  0.0000
  O      O         0.711633600712346    0.336098853298939    0.530300043473596  0.0000
  O      O         0.788366374512927    0.163901080972205    0.969699900202911  0.0000
  O      O         0.850360611150818    0.261233179989645    0.531780312695603  0.0000
  O      O         0.649639372096234    0.238766721764966    0.968219597944294  0.0000
  O      O         0.785851530964451    0.376762241972561    0.620010834381743  0.0000
  O      O         0.714148533509883    0.123237646129435    0.879989084482894  0.0000
  O      O         0.936229232256303    0.411432641397718    0.621040472287903  0.0000
  O      O         0.563770810453027    0.088567207489582    0.878959568048539  0.0000
  O      O         0.801249796586827    0.394973650374558    0.747921035551619  0.0000
  O      O         0.698750183965442    0.105026289616847    0.752078943712241  0.0000
  O      O         0.831997109331204    0.455188957915071    0.856805217241576  0.0000
  O      O         0.668002631391905    0.044811166896461    0.643194848213783  0.0000
  O      O         0.686765949215943    0.488964767649216    0.843584024449776  0.0000
  O      O         0.813233907699206    0.011035156287165    0.656415926307267  0.0000
  O      O         0.717004695645604    0.355229105054458    0.889080799447702  0.0000
  O      O         0.782995283451424    0.144770828296552    0.610919140240294  0.0000
  O      O         0.569374596906582    0.366252237522822    0.505984601809542  0.0000
  O      O         0.930625355217873    0.133747647390318    0.994015338355965  0.0000
  O      O         0.584863075475327    0.473328944803299    0.585346066648259  0.0000
  O      O         0.915137117996843    0.026670856714517    0.914653769758553  0.0000
  O      O         0.500000297116039    0.000000394167855    0.500000171412907  0.0000
  Si     Si        0.840798748918251    0.969871567266894    0.435760597495652  0.0000
  Si     Si        0.659201311712132    0.530128359420798    0.064239389077874  0.0000
  Si     Si        0.802388262350971    0.841081623816984    0.038740010344853  0.0000
  Si     Si        0.697611686595235    0.658918295059122    0.461259949627538  0.0000
  Si     Si        0.833349120520318    0.923695492746139    0.160653538334819  0.0000
  Si     Si        0.666650850885041    0.576304450552186    0.339346419719563  0.0000
  Si     Si        0.758475983057972    0.923663198860409    0.334093819504628  0.0000
  Si     Si        0.741523952130336    0.576336749784833    0.165906157555516  0.0000
  Si     Si        0.662612887458785    0.824533911125743    0.474021285473615  0.0000
  Si     Si        0.837387053684522    0.675465999935102    0.025978651689356  0.0000
  Si     Si        0.521141018804924    0.938795260258472    0.052788906226532  0.0000
  Si     Si        0.978858982102433    0.561204636582191    0.447211033248989  0.0000
  O      O         0.750000261246519    0.500000006677312    0.000000231965965  0.0000
  O      O         0.865375851268228    0.893765187203380    0.471624827022386  0.0000
  O      O         0.634624111174085    0.606234638117001    0.028375056814210  0.0000
  O      O         0.711633688894586    0.836098844232148    0.030299945276934  0.0000
  O      O         0.788366250033480    0.663901133180998    0.469699994264720  0.0000
  O      O         0.850360630213710    0.761233133107204    0.031780337573432  0.0000
  O      O         0.649639291006650    0.738766781034168    0.468219622646680  0.0000
  O      O         0.785851511543552    0.876762243140821    0.120010804290186  0.0000
  O      O         0.714148479452990    0.623237667630210    0.379989157085462  0.0000
  O      O         0.936229175723330    0.911432721364680    0.121040360481119  0.0000
  O      O         0.563770800703885    0.588567272117622    0.378959614730610  0.0000
  O      O         0.801249820713700    0.894973715530997    0.247920999179287  0.0000
  O      O         0.698750193322745    0.605026255806550    0.252078972876790  0.0000
  O      O         0.831997153847634    0.955188926900910    0.356805240610328  0.0000
  O      O         0.668002621781109    0.544811160412740    0.143194847246924  0.0000
  O      O         0.686766018113910    0.988964828147238    0.343584008231692  0.0000
  O      O         0.813233872957829    0.511035084233775    0.156415969188716  0.0000
  O      O         0.717004725538926    0.855229132800728    0.389080776007264  0.0000
  O      O         0.782995257997946    0.644770786458217    0.110919170106723  0.0000
  O      O         0.569374703561722    0.866252189877039    0.005984463453193  0.0000
  O      O         0.930625293659701    0.633747784125902    0.494015314032363  0.0000
  O      O         0.584863459568718    0.973328791338980    0.085345833013740  0.0000
  O      O         0.915136739712512    0.526671013646714    0.414653938131194  0.0000
  O      O         0.500000060906294    0.499999933313531    0.999999945626627  0.0000
  Si     Si        0.840798861497812    0.969871573135774    0.935760556873618  0.0000
  Si     Si        0.659201184423280    0.530128353252421    0.564239394346394  0.0000
  Si     Si        0.802388122234794    0.841081669149704    0.538740091073653  0.0000
  Si     Si        0.697611817415280    0.658918233924491    0.961259857455453  0.0000
  Si     Si        0.833349133147835    0.923695533308963    0.660653536386742  0.0000
  Si     Si        0.666650831091371    0.576304416199356    0.839346383447564  0.0000
  Si     Si        0.758476031869550    0.923663189580782    0.834093809070422  0.0000
  Si     Si        0.741523985330154    0.576336703429128    0.665906122598327  0.0000
  Si     Si        0.662612992775878    0.824533846656307    0.974021249107604  0.0000
  Si     Si        0.837386985699457    0.675466065323469    0.525978663969701  0.0000
  Si     Si        0.521140937088674    0.938795342854817    0.552788943734849  0.0000
  Si     Si        0.978859087524020    0.561204573165297    0.947211005841343  0.0000
  O      O         0.749999889933510    0.499999950742067    0.499999919125327  0.0000
  O      O         0.865375965929715    0.893765172933990    0.971624759938225  0.0000
  O      O         0.634623996269303    0.606234719843412    0.528375188025123  0.0000
  O      O         0.711633548783140    0.836098905537944    0.530300019003897  0.0000
  O      O         0.788366373890287    0.663901046432586    0.969699929529257  0.0000
  O      O         0.850360485386838    0.761233189126976    0.531780456377461  0.0000
  O      O         0.649639434886292    0.738766719281937    0.968219535444850  0.0000
  O      O         0.785851435977883    0.876762318383515    0.620010856835190  0.0000
  O      O         0.714148537429726    0.623237603157023    0.879989078734714  0.0000
  O      O         0.936229190595006    0.911432774773532    0.621040289488453  0.0000
  O      O         0.563770775279253    0.588567240229053    0.878959598795958  0.0000
  O      O         0.801249914470970    0.894973726098677    0.747920980995625  0.0000
  O      O         0.698750137673132    0.605026211538341    0.752078936144952  0.0000
  O      O         0.831997176246126    0.955188934955236    0.856805241354422  0.0000
  O      O         0.668002751020161    0.544811019202825    0.643194760615714  0.0000
  O      O         0.686766047556889    0.988964801053115    0.843583989435469  0.0000
  O      O         0.813233944459038    0.511035079270840    0.656415965583747  0.0000
  O      O         0.717004760988020    0.855229117649876    0.889080743600356  0.0000
  O      O         0.782995286242944    0.644770744116498    0.610919157690744  0.0000
  O      O         0.569374625571852    0.866252317489581    0.505984404052664  0.0000
  O      O         0.930625314593436    0.633747620260627    0.994015447515851  0.0000
  O      O         0.584863372423233    0.973328733820554    0.585345991087758  0.0000
  O      O         0.915136930342439    0.526671023930301    0.914653747185523  0.0000
  O      O         0.500000000000000    0.500000000000000    0.500000000000000  0.0000
