data_ReferenceDataBase/NUD-3
_audit_creation_method             Generated by GULP
_audit_author_name                 Salvador R. G. Balestra
_symmetry_space_group_name_H-M     'P 1             '
_symmetry_Int_Tables_number        1

loop_
_symmetry_equiv_pos_site_id
_symmetry_equiv_pos_as_xyz
   1     +x,+y,+z                
_cell_length_a                       13.9147
_cell_length_b                       13.7996
_cell_length_c                       12.8353
_cell_angle_alpha                   90.0000
_cell_angle_beta                    90.0000
_cell_angle_gamma                   90.0000

loop_
_atom_site_label
_atom_site_type_symbol
_atom_site_fract_x
_atom_site_fract_y
_atom_site_fract_z
_atom_site_charge
  Si     Si        0.885146651574108    0.607096964826688    0.374007004093387  0.0000
  Si     Si        0.602044147939374    0.610383095571443    0.496223629165675  0.0000
  Si     Si        0.605222603242445    0.607983687793428    0.115061689326295  0.0000
  Si     Si        0.704701207419166    0.704324364012902    0.301779026680665  0.0000
  O      O         0.818312599240302    0.682679535535445    0.311447260993600  0.0000
  O      O         0.671836312220483    0.672551661045768    0.187797569036976  0.0000
  O      O         0.336879507554501    0.348217778435472    0.391399950857705  0.0000
  O      O         0.860616285684580    0.496139758906547    0.343093939667225  0.0000
  O      O         0.613923722431424    0.863468562092606    0.496223631369756  0.0000
  O      O         0.494656310730852    0.625651329405418    0.145222552213575  0.0000
  O      O         0.994656310138897    0.631462317167674    0.344336743674135  0.0000
  O      O         0.624271195115057    0.639324963929868    0.996223628538013  0.0000
  O      O         0.387254262064769    0.496139759094884    0.496223641832948  0.0000
  Si     Si        0.104165968043327    0.385182552690503    0.374007007323722  0.0000
  Si     Si        0.387268469672032    0.381896426425181    0.496223632217044  0.0000
  Si     Si        0.384090020264356    0.384295835598802    0.115061690862324  0.0000
  Si     Si        0.284611414833080    0.287955158383741    0.301779028113537  0.0000
  O      O         0.171000023340241    0.309599985470786    0.311447263281976  0.0000
  O      O         0.317476310857381    0.319727862591910    0.187797570880782  0.0000
  O      O         0.652433112491937    0.644061744373465    0.391399949000777  0.0000
  O      O         0.128696337501611    0.496139760065386    0.343093953827107  0.0000
  O      O         0.375388895323085    0.128810958989173    0.496223631401674  0.0000
  O      O         0.494656312714619    0.366628193778889    0.145222553328324  0.0000
  O      O         0.994656312370138    0.360817202740118    0.344336730707679  0.0000
  O      O         0.365041427716090    0.352954559451199    0.996223630300637  0.0000
  O      O         0.602058356005158    0.496139763022093    0.496223637038864  0.0000
  Si     Si        0.104165968652456    0.607096968814351    0.618440251394666  0.0000
  Si     Si        0.387268467260925    0.610383092253000    0.496223629344839  0.0000
  Si     Si        0.384090019720410    0.607983685367140    0.877385567201174  0.0000
  Si     Si        0.284611410563009    0.704324364310852    0.690668233015353  0.0000
  O      O         0.171000018051989    0.682679538139436    0.680999998864620  0.0000
  O      O         0.317476305374334    0.672551654096785    0.804649688324478  0.0000
  O      O         0.652433112371666    0.348217774948243    0.601047309436076  0.0000
  O      O         0.128696344754752    0.496139765254717    0.649353306209175  0.0000
  O      O         0.375388898061784    0.863468560116583    0.496223631550488  0.0000
  O      O         0.494656311195264    0.625651334178321    0.847224703771274  0.0000
  O      O         0.994656308648368    0.631462311378640    0.648110513638431  0.0000
  O      O         0.365041426306253    0.639324959812508    0.996223628138599  0.0000
  Si     Si        0.104165968463066    0.607096967856955    0.374007006891853  0.0000
  Si     Si        0.384090018806390    0.607983685729161    0.115061689108021  0.0000
  Si     Si        0.284611412838165    0.704324361554307    0.301779025854665  0.0000
  O      O         0.171000020144917    0.682679535394464    0.311447257912472  0.0000
  O      O         0.317476308452242    0.672551658917203    0.187797568009777  0.0000
  O      O         0.652433117783580    0.348217780993224    0.391399952525734  0.0000
  Si     Si        0.385029029027086    0.106657764519588    0.618157050431629  0.0000
  Si     Si        0.384090021954348    0.384295833459671    0.877385569062857  0.0000
  Si     Si        0.284611398704294    0.287955159900845    0.690668233481383  0.0000
  O      O         0.309782358290726    0.174439142452538    0.679136567811070  0.0000
  O      O         0.317476309583489    0.319727860416930    0.804649688478833  0.0000
  O      O         0.652433108065396    0.644061754007673    0.601047306732359  0.0000
  O      O         0.494656307163706    0.127149041012533    0.654092883528946  0.0000
  O      O         0.121686589404904    0.370971596334138    0.496223630532248  0.0000
  O      O         0.357323008113340    0.496139758736480    0.861234914002763  0.0000
  O      O         0.356972880144050    0.996139759957954    0.642936505220361  0.0000
  O      O         0.494656307173697    0.653207148504970    0.496223624177478  0.0000
  Si     Si        0.385029030588212    0.106657763261161    0.374290212554866  0.0000
  O      O         0.309782365219120    0.174439142668576    0.313310696743173  0.0000
  O      O         0.494656309059482    0.127149038319880    0.338354379392125  0.0000
  O      O         0.357323002179408    0.496139760461065    0.131212344189396  0.0000
  O      O         0.356972879625862    0.996139759462320    0.349510757452780  0.0000
  Si     Si        0.385029031256378    0.885621756167099    0.618157050569830  0.0000
  O      O         0.309782363625080    0.817840379937759    0.679136568157052  0.0000
  O      O         0.494656309645250    0.865130480938917    0.654092883747947  0.0000
  O      O         0.121686602513035    0.621307922591793    0.496223629029564  0.0000
  O      O         0.494656310999619    0.339072373420831    0.496223627279311  0.0000
  Si     Si        0.385029032025596    0.885621755928831    0.374290212636067  0.0000
  O      O         0.309782366343644    0.817840376352585    0.313310697576457  0.0000
  O      O         0.494656310912106    0.865130482561049    0.338354378997173  0.0000
  Si     Si        0.604283585782112    0.106657765597068    0.618157050356215  0.0000
  Si     Si        0.602044150565925    0.381896429985323    0.496223631438955  0.0000
  Si     Si        0.605222605289485    0.384295835366684    0.877385570034563  0.0000
  Si     Si        0.704701207899892    0.287955157428695    0.690668232260308  0.0000
  O      O         0.679530252552719    0.174439142509230    0.679136567124970  0.0000
  O      O         0.671836318963543    0.319727866288543    0.804649690258392  0.0000
  O      O         0.336879503962662    0.644061750895267    0.601047305579171  0.0000
  O      O         0.867626033833843    0.370971609409101    0.496223629366409  0.0000
  O      O         0.631989616573826    0.496139761789314    0.861234916239373  0.0000
  O      O         0.632339736594768    0.996139761923102    0.642936504796627  0.0000
  O      O         0.624271198704071    0.352954560538364    0.996223630815931  0.0000
  Si     Si        0.604283587617590    0.106657764926658    0.374290212708341  0.0000
  Si     Si        0.605222605166425    0.384295837285554    0.115061691034951  0.0000
  Si     Si        0.704701208184034    0.287955159198177    0.301779029047821  0.0000
  O      O         0.679530253250079    0.174439144385722    0.313310696775646  0.0000
  O      O         0.671836315098609    0.319727866071018    0.187797572028697  0.0000
  O      O         0.336879502743176    0.644061737199011    0.391399947717118  0.0000
  O      O         0.631989621422356    0.496139762883743    0.131212342892172  0.0000
  O      O         0.632339740413318    0.996139761563803    0.349510757879618  0.0000
  Si     Si        0.604283587796300    0.885621757781466    0.618157050327438  0.0000
  Si     Si        0.605222602779475    0.607983687658935    0.877385568031720  0.0000
  Si     Si        0.704701207394804    0.704324366043932    0.690668231048089  0.0000
  O      O         0.679530256281101    0.817840382078439    0.679136566996884  0.0000
  O      O         0.671836315744486    0.672551657204381    0.804649688099965  0.0000
  O      O         0.336879505462403    0.348217765554724    0.601047308905820  0.0000
  O      O         0.867626016538233    0.621307908467138    0.496223627555638  0.0000
  Si     Si        0.604283589161320    0.885621757613827    0.374290212475326  0.0000
  O      O         0.679530256566687    0.817840379520061    0.313310697024608  0.0000
  Si     Si        0.885146653186375    0.385182554973270    0.618440255560386  0.0000
  O      O         0.818312599940912    0.309599980546300    0.680999991833327  0.0000
  O      O         0.860616276849256    0.496139759919016    0.649353315513189  0.0000
  O      O         0.613923720605035    0.128810961700788    0.496223631423392  0.0000
  O      O         0.494656313981089    0.366628186389111    0.847224707129511  0.0000
  O      O         0.994656306811586    0.360817212854680    0.648110534593316  0.0000
  Si     Si        0.885146655820308    0.385182553572504    0.374007003185407  0.0000
  O      O         0.818312600890278    0.309599981823453    0.311447265207321  0.0000
  Si     Si        0.885146649481236    0.607096964390637    0.618440251191363  0.0000
  O      O         0.818312598952045    0.682679538133515    0.680999992136417  0.0000
  Si     Si        0.104165959490620    0.385182564380569    0.618440250996769  0.0000
  O      O         0.171000000000049    0.309600000000046    0.681000000000040  0.0000
