data_ReferenceDataBase/PTF
_audit_creation_method             Generated by GULP
_audit_author_name                 Salvador R. G. Balestra
_symmetry_space_group_name_H-M     'P 1             '
_symmetry_Int_Tables_number        1

loop_
_symmetry_equiv_pos_site_id
_symmetry_equiv_pos_as_xyz
   1     +x,+y,+z                
_cell_length_a                       21.4436
_cell_length_b                       22.5271
_cell_length_c                       12.5042
_cell_angle_alpha                   90.0000
_cell_angle_beta                   124.8137
_cell_angle_gamma                   90.0000

loop_
_atom_site_label
_atom_site_type_symbol
_atom_site_fract_x
_atom_site_fract_y
_atom_site_fract_z
_atom_site_charge
  O      O         0.130907122607338    0.086074459873987    0.129013560950890  0.0000
  O      O         0.274386324912078    0.070291990929942    0.320282158603627  0.0000
  O      O         0.288903865186904    0.085519869688025    0.128561310880721  0.0000
  O      O         0.145784950894273    0.073148601189184    0.935784425405059  0.0000
  O      O         0.180388670670090    0.113552359173833    0.368924341252246  0.0000
  O      O         0.079584918445846    0.199085193761547    0.255337207996387  0.0000
  O      O         0.000038882868309    0.206000139980400    0.002361743638972  0.0000
  O      O         0.017881688697567    0.112930632304326    0.892208827547754  0.0000
  O      O         0.399909739754562    0.114387301018346    0.365534800671244  0.0000
  O      O         0.410381318210065    0.208069812691616    0.253488210812954  0.0000
  O      O         0.334057398766554    0.203775346462994    0.998959002626525  0.0000
  O      O         0.245554135033867    0.110823646657395    0.890988287984556  0.0000
  O      O         0.062735644287204    0.218931750863279    0.877715770614151  0.0000
  O      O         0.367073606804859    0.001121719173437    0.304152779307654  0.0000
  O      O         0.171135934060667    0.001121720020567    0.304069454771826  0.0000
  O      O         0.220482382858002    0.219369026484864    0.342120075825744  0.0000
  O      O         0.179403772030606    0.201497459731067    0.503351304524674  0.0000
  O      O         0.238053840533816    0.196993617174386    0.746157179108623  0.0000
  O      O         0.247724846677668    0.001121719408465    0.953423186243320  0.0000
  O      O         0.055646675139663    0.001121720195543    0.953375780309397  0.0000
  O      O         0.357275098290748    0.218131356931860    0.398942381549241  0.0000
  O      O         0.187864368844157    0.209853515687161    0.896175618101961  0.0000
  O      O         0.500038885579309    0.197418175406955    0.502361741902049  0.0000
  Si     Si        0.087908826939711    0.068213962067276    0.977690092156227  0.0000
  Si     Si        0.188923749854227    0.067567677796294    0.279943856012745  0.0000
  Si     Si        0.332786238395319    0.067696492280158    0.279508272080571  0.0000
  Si     Si        0.231665817788734    0.067720735211401    0.977661408696297  0.0000
  Si     Si        0.165578463678596    0.183885094534877    0.368015248269822  0.0000
  Si     Si        0.000009502161541    0.183627762258493    0.123902957029071  0.0000
  Si     Si        0.416095346501665    0.184835870344824    0.379420546973233  0.0000
  Si     Si        0.373548082900365    0.246694160500277    0.123801598308582  0.0000
  Si     Si        0.251164154283630    0.181772485667436    0.881968033186424  0.0000
  Si     Si        0.209399996451462    0.242193440982063    0.628229993143341  0.0000
  O      O         0.869170646770076    0.086074459106903    0.875709930156293  0.0000
  O      O         0.725691444310746    0.070291991327720    0.684441332328037  0.0000
  O      O         0.711173905157359    0.085519870426300    0.876162181328453  0.0000
  O      O         0.854292819240896    0.073148601092169    0.068939066758360  0.0000
  O      O         0.819689099180839    0.113552358208125    0.635799149892102  0.0000
  O      O         0.920492850758471    0.199085193346372    0.749386279202639  0.0000
  O      O         0.982196081523233    0.112930631280802    0.112514663033270  0.0000
  O      O         0.600168030180287    0.114387302348932    0.639188692879512  0.0000
  O      O         0.589696444468356    0.208069814694139    0.751235274367706  0.0000
  O      O         0.666020369038880    0.203775344922076    0.005764483222178  0.0000
  O      O         0.754523635636841    0.110823647338536    0.113735204646385  0.0000
  O      O         0.937342123447123    0.218931748155798    0.127007720560889  0.0000
  O      O         0.633004162105134    0.001121720394132    0.700570711882986  0.0000
  O      O         0.828941834625376    0.001121719370238    0.700654036138070  0.0000
  O      O         0.779595387150778    0.219369025426089    0.662603415824299  0.0000
  O      O         0.820673995439581    0.201497458178390    0.501372183451880  0.0000
  O      O         0.762023923217245    0.196993618244878    0.258566307569356  0.0000
  O      O         0.752352922572208    0.001121720068973    0.051300305332439  0.0000
  O      O         0.944431093875582    0.001121719180061    0.051347710449260  0.0000
  O      O         0.642802674524004    0.218131358707490    0.605781118910530  0.0000
  O      O         0.812213400000935    0.209853518002884    0.108547877226695  0.0000
  Si     Si        0.912168942792974    0.068213961342128    0.027033399119186  0.0000
  Si     Si        0.811154019389234    0.067567677326364    0.724779635094861  0.0000
  Si     Si        0.667291531285175    0.067696493233911    0.725215219904448  0.0000
  Si     Si        0.768411952294379    0.067720735690731    0.027062083499447  0.0000
  Si     Si        0.834499305460264    0.183885093523630    0.636708241238449  0.0000
  Si     Si        0.000068266406942    0.183627762947989    0.880820532603184  0.0000
  Si     Si        0.583982422942335    0.184835871625304    0.625302944019563  0.0000
  Si     Si        0.626529685205448    0.246694160738876    0.880921890428334  0.0000
  Si     Si        0.748913613600708    0.181772486195660    0.122755456816886  0.0000
  Si     Si        0.790677771661374    0.242193440781752    0.376493496847666  0.0000
  O      O         0.869170646364195    0.916168979443828    0.875709929881385  0.0000
  O      O         0.725691443916828    0.931951448513500    0.684441332535116  0.0000
  O      O         0.711173903890151    0.916723569907915    0.876162180512009  0.0000
  O      O         0.854292818223032    0.929094838239864    0.068939065600182  0.0000
  O      O         0.819689097818978    0.888691080370503    0.635799149127133  0.0000
  O      O         0.920492850604333    0.803158246120154    0.749386280527447  0.0000
  O      O         0.000038884081971    0.796243299390052    0.002361744642484  0.0000
  O      O         0.982196080391551    0.889312807003570    0.112514663500105  0.0000
  O      O         0.600168029222883    0.887856138485243    0.639188691258972  0.0000
  O      O         0.589696449058756    0.794173626101701    0.751235277909764  0.0000
  O      O         0.666020369767883    0.798468093684443    0.005764486216416  0.0000
  O      O         0.754523634288679    0.891419792738804    0.113735203394429  0.0000
  O      O         0.937342125019846    0.783311688642497    0.127007721551304  0.0000
  O      O         0.779595386835654    0.782874412675234    0.662603415333111  0.0000
  O      O         0.820673995977782    0.800745980210300    0.501372184602762  0.0000
  O      O         0.762023926724160    0.805249821842162    0.258566309891132  0.0000
  O      O         0.642802672180849    0.784112082885946    0.605781111892560  0.0000
  O      O         0.812213400193226    0.792389923449055    0.108547873667302  0.0000
  O      O         0.500038884560599    0.804825264249965    0.502361746319154  0.0000
  Si     Si        0.912168942139757    0.934029477275840    0.027033398750990  0.0000
  Si     Si        0.811154018915486    0.934675761601178    0.724779634883404  0.0000
  Si     Si        0.667291530556039    0.934546947304101    0.725215219288711  0.0000
  Si     Si        0.768411951411516    0.934522704290177    0.027062082683002  0.0000
  Si     Si        0.834499305108488    0.818358345119065    0.636708241564941  0.0000
  Si     Si        0.000068266344932    0.818615677251743    0.880820532882578  0.0000
  Si     Si        0.583982422793358    0.817407569124910    0.625302943850523  0.0000
  Si     Si        0.626529685501120    0.755549279001350    0.880921891621773  0.0000
  Si     Si        0.748913614283829    0.820470953737589    0.122755456990191  0.0000
  Si     Si        0.790677771567910    0.760049998452186    0.376493496703005  0.0000
  O      O         0.130907122129497    0.916168980276466    0.129013560665594  0.0000
  O      O         0.274386324477882    0.931951448251603    0.320282158621292  0.0000
  O      O         0.288903863907894    0.916723569013659    0.128561310004584  0.0000
  O      O         0.145784949816520    0.929094838312739    0.935784424228933  0.0000
  O      O         0.180388669661016    0.888691080973242    0.368924340783300  0.0000
  O      O         0.079584918911651    0.803158245494346    0.255337209026979  0.0000
  O      O         0.017881687430449    0.889312808162865    0.892208827861343  0.0000
  O      O         0.399909738754431    0.887856137308217    0.365534798951482  0.0000
  O      O         0.410381322263321    0.794173625321172    0.253488214604646  0.0000
  O      O         0.334057399398886    0.798468094015373    0.998959005991000  0.0000
  O      O         0.245554133523730    0.891419792184525    0.890988286597211  0.0000
  O      O         0.062735645283646    0.783311691125606    0.877715770515538  0.0000
  O      O         0.220482383724989    0.782874413852407    0.342120078700860  0.0000
  O      O         0.179403771939889    0.800745980951290    0.503351305876664  0.0000
  O      O         0.238053844278847    0.805249821544234    0.746157181871407  0.0000
  O      O         0.357275097225227    0.784112080868647    0.398942377467269  0.0000
  O      O         0.187864368735210    0.792389921756457    0.896175614183322  0.0000
  Si     Si        0.087908826201835    0.934029478032572    0.977690091739876  0.0000
  Si     Si        0.188923749360403    0.934675762076701    0.279943855780017  0.0000
  Si     Si        0.332786237637256    0.934546946374236    0.279508271331530  0.0000
  Si     Si        0.231665816824891    0.934522703773582    0.977661407783266  0.0000
  Si     Si        0.165578463675843    0.818358345562880    0.368015249373527  0.0000
  Si     Si        0.000009502440150    0.818615676293854    0.123902957612158  0.0000
  Si     Si        0.416095346532563    0.817407568162387    0.379420547171745  0.0000
  Si     Si        0.373548083054261    0.755549278711630    0.123801599691244  0.0000
  Si     Si        0.251164154829840    0.820470953298232    0.881968033471118  0.0000
  Si     Si        0.209399996196362    0.760049998665388    0.628229993178955  0.0000
  O      O         0.630907122361980    0.586074460019907    0.129013561648636  0.0000
  O      O         0.774386324790713    0.570291990969854    0.320282158508891  0.0000
  O      O         0.788903864755357    0.585519869565565    0.128561310446654  0.0000
  O      O         0.645784950356312    0.573148601354400    0.935784425697967  0.0000
  O      O         0.680388671080488    0.613552359213650    0.368924342269005  0.0000
  O      O         0.579584917620469    0.699085193180752    0.255337210414134  0.0000
  O      O         0.500038884599091    0.706000140302931    0.002361746212174  0.0000
  O      O         0.517881688246425    0.612930632467824    0.892208827913143  0.0000
  O      O         0.899909739373717    0.614387301174211    0.365534799203393  0.0000
  O      O         0.910381319517242    0.708069813986445    0.253488213243005  0.0000
  O      O         0.834057398402729    0.703775345620197    0.998959004847289  0.0000
  O      O         0.745554133897565    0.610823646821085    0.890988287134592  0.0000
  O      O         0.562735642689608    0.718931750977224    0.877715767488855  0.0000
  O      O         0.867073606799733    0.501121719185875    0.304152779789119  0.0000
  O      O         0.671135934405406    0.501121720132259    0.304069456003261  0.0000
  O      O         0.720482381160461    0.719369027191924    0.342120074952927  0.0000
  O      O         0.679403772501464    0.701497459318718    0.503351306303613  0.0000
  O      O         0.738053841908754    0.696993617864856    0.746157181096859  0.0000
  O      O         0.747724845999580    0.501121719504880    0.953423185906947  0.0000
  O      O         0.555646675016527    0.501121720304585    0.953375781596052  0.0000
  O      O         0.857275095856015    0.718131356479123    0.398942378543009  0.0000
  O      O         0.687864367851298    0.709853516123613    0.896175616501510  0.0000
  O      O         0.000038883624355    0.697418175334874    0.502361744685170  0.0000
  Si     Si        0.587908826525388    0.568213962246310    0.977690092718277  0.0000
  Si     Si        0.688923749853233    0.567567677886751    0.279943856550299  0.0000
  Si     Si        0.832786238142867    0.567696492250368    0.279508271787500  0.0000
  Si     Si        0.731665817128655    0.567720735304150    0.977661408357794  0.0000
  Si     Si        0.665578463262618    0.683885094445101    0.368015249246099  0.0000
  Si     Si        0.500009502043366    0.683627762226958    0.123902957620278  0.0000
  Si     Si        0.916095345526004    0.684835870591822    0.379420546824819  0.0000
  Si     Si        0.873548082685906    0.746694160644536    0.123801598863234  0.0000
  Si     Si        0.751164153932640    0.681772485820072    0.881968033618814  0.0000
  Si     Si        0.709399996723139    0.742193441180611    0.628229994010718  0.0000
  O      O         0.369170646313251    0.586074458970727    0.875709929512465  0.0000
  O      O         0.225691443949715    0.570291991079600    0.684441331979888  0.0000
  O      O         0.211173904539127    0.585519870311715    0.876162180700856  0.0000
  O      O         0.354292818712500    0.573148601176605    0.068939066027554  0.0000
  O      O         0.319689098448398    0.613552358256777    0.635799149104255  0.0000
  O      O         0.420492849160366    0.699085193701280    0.749386281748718  0.0000
  O      O         0.482196080991350    0.612930631277978    0.112514662070083  0.0000
  O      O         0.100168029727819    0.614387302170212    0.639188691632510  0.0000
  O      O         0.089696446351451    0.708069814102549    0.751235276150772  0.0000
  O      O         0.166020369058782    0.703775345506559    0.005764484608952  0.0000
  O      O         0.254523635038773    0.610823647342642    0.113735203927451  0.0000
  O      O         0.437342122997305    0.718931748252056    0.127007719844536  0.0000
  O      O         0.133004161768600    0.501121720217027    0.700570711635522  0.0000
  O      O         0.328941834351534    0.501121719213437    0.700654035744880  0.0000
  O      O         0.279595384213035    0.719369025275419    0.662603411215329  0.0000
  O      O         0.320673996621931    0.701497458661746    0.501372184803105  0.0000
  O      O         0.262023924159338    0.696993617724139    0.258566308713595  0.0000
  O      O         0.252352922448807    0.501121720095087    0.051300305502413  0.0000
  O      O         0.444431093593542    0.501121719218378    0.051347710253098  0.0000
  O      O         0.142802670745504    0.718131358730351    0.605781112333625  0.0000
  O      O         0.312213399668852    0.709853517832878    0.108547876388996  0.0000
  Si     Si        0.412168942317679    0.568213961331832    0.027033398541929  0.0000
  Si     Si        0.311154019012074    0.567567677173707    0.724779634524327  0.0000
  Si     Si        0.167291530803840    0.567696493055088    0.725215219260418  0.0000
  Si     Si        0.268411951767655    0.567720735704174    0.027062082892057  0.0000
  Si     Si        0.334499304513794    0.683885093718970    0.636708240897444  0.0000
  Si     Si        0.500068265868444    0.683627763178231    0.880820532969546  0.0000
  Si     Si        0.083982421816994    0.684835871321322    0.625302943359597  0.0000
  Si     Si        0.126529685403183    0.746694160798665    0.880921890906829  0.0000
  Si     Si        0.248913613618962    0.681772486182164    0.122755457059661  0.0000
  Si     Si        0.290677772076123    0.742193440745356    0.376493497156562  0.0000
  O      O         0.369170646434008    0.416168979386459    0.875709930213944  0.0000
  O      O         0.225691443987851    0.431951448413985    0.684441333224332  0.0000
  O      O         0.211173903802582    0.416723569966680    0.876162181067187  0.0000
  O      O         0.354292818192706    0.429094838239828    0.068939065814275  0.0000
  O      O         0.319689097741465    0.388691080021952    0.635799149686670  0.0000
  O      O         0.420492851151725    0.303158245983356    0.749386282554312  0.0000
  O      O         0.500038885447976    0.296243299303369    0.002361747278669  0.0000
  O      O         0.482196080474288    0.389312807064493    0.112514664036526  0.0000
  O      O         0.100168029298777    0.387856138317525    0.639188692044912  0.0000
  O      O         0.089696450204942    0.294173625600128    0.751235279223917  0.0000
  O      O         0.166020370799594    0.298468093570037    0.005764487552215  0.0000
  O      O         0.254523634724853    0.391419792748019    0.113735204398305  0.0000
  O      O         0.437342126434275    0.283311688308223    0.127007724333166  0.0000
  O      O         0.279595387377766    0.282874411994993    0.662603416390620  0.0000
  O      O         0.320673996633595    0.300745979955398    0.501372185937427  0.0000
  O      O         0.262023928137712    0.305249821586488    0.258566311290770  0.0000
  O      O         0.142802672225366    0.284112083076241    0.605781111313566  0.0000
  O      O         0.312213400913800    0.292389923728153    0.108547873739928  0.0000
  O      O         0.000038884704833    0.304825264150854    0.502361748330192  0.0000
  Si     Si        0.412168942154919    0.434029477241854    0.027033399088076  0.0000
  Si     Si        0.311154018942427    0.434675761437876    0.724779635259896  0.0000
  Si     Si        0.167291530530272    0.434546947204260    0.725215219722922  0.0000
  Si     Si        0.268411951416963    0.434522704320454    0.027062083124724  0.0000
  Si     Si        0.334499305602128    0.318358344776140    0.636708242846503  0.0000
  Si     Si        0.500068266930003    0.318615677265050    0.880820534719815  0.0000
  Si     Si        0.083982423189994    0.317407568904303    0.625302944759278  0.0000
  Si     Si        0.126529686650042    0.255549278744003    0.880921893233879  0.0000
  Si     Si        0.248913615247603    0.320470953703751    0.122755458142921  0.0000
  Si     Si        0.290677773068170    0.260049998211860    0.376493498236954  0.0000
  O      O         0.630907122141937    0.416168980398009    0.129013562318558  0.0000
  O      O         0.774386324663683    0.431951448205627    0.320282159624017  0.0000
  O      O         0.788903863890456    0.416723569214011    0.128561310733305  0.0000
  O      O         0.645784949785877    0.429094838397970    0.935784425758630  0.0000
  O      O         0.680388670414655    0.388691081202497    0.368924343351493  0.0000
  O      O         0.579584919615764    0.303158246080843    0.255337212222893  0.0000
  O      O         0.517881687453327    0.389312808315648    0.892208829455883  0.0000
  O      O         0.899909738758307    0.387856137105122    0.365534799335425  0.0000
  O      O         0.910381323596832    0.294173624711057    0.253488217195454  0.0000
  O      O         0.834057400313732    0.298468094793506    0.998959009300820  0.0000
  O      O         0.745554133389967    0.391419792315270    0.890988287703249  0.0000
  O      O         0.562735646239136    0.283311691696888    0.877715772388807  0.0000
  O      O         0.720482384061201    0.282874414474787    0.342120079461023  0.0000
  O      O         0.679403773984461    0.300745980175167    0.503351309078817  0.0000
  O      O         0.738053847229104    0.305249822429813    0.746157185626609  0.0000
  O      O         0.857275097383273    0.284112080552737    0.398942378219746  0.0000
  O      O         0.687864368945390    0.292389921197514    0.896175613442737  0.0000
  Si     Si        0.587908826196823    0.434029478173328    0.977690093319337  0.0000
  Si     Si        0.688923749650789    0.434675762110712    0.279943857381420  0.0000
  Si     Si        0.832786237750668    0.434546946340294    0.279508272237139  0.0000
  Si     Si        0.731665816651495    0.434522703976596    0.977661408694566  0.0000
  Si     Si        0.665578464575799    0.318358345645867    0.368015252189995  0.0000
  Si     Si        0.500009503348459    0.318615676412574    0.123902959731462  0.0000
  Si     Si        0.916095346827398    0.317407567973405    0.379420548541849  0.0000
  Si     Si        0.873548083861617    0.255549278638928    0.123801601551459  0.0000
  Si     Si        0.751164155719751    0.320470953580254    0.881968035857355  0.0000
  Si     Si        0.709399999999960    0.260049999999978    0.628230000000030  0.0000
