data_ZEO-5

_audit_creation_method RASPA-1.0
_audit_creation_date 2023-7-29
_audit_author_name 'Salvador Rodríguez Gómez'

_cell_length_a    25.4666
_cell_length_b    24.9267
_cell_length_c    14.3968
_cell_angle_alpha 90.0671
_cell_angle_beta  104.574
_cell_angle_gamma 89.9516
_cell_volume      8845.01

_symmetry_cell_setting          triclinic
_symmetry_space_group_name_Hall 'P 1'
_symmetry_space_group_name_H-M  'P 1'
_symmetry_Int_Tables_number     1

_symmetry_equiv_pos_as_xyz 'x,y,z'

loop_
_atom_site_label
_atom_site_type_symbol
_atom_site_fract_x
_atom_site_fract_y
_atom_site_fract_z
_atom_site_charge
Si       Si     0.421700000000     0.487730000000     0.626810000000     0          
Si       Si     0.617360000000     0.445070000000     0.684830000000     0          
Si       Si     0.435950000000     0.390920000000     0.378370000000     0          
Si       Si     0.502550000000     0.399780000000     0.590230000000     0          
Si       Si     0.354840000000     0.478640000000     0.415390000000     0          
Si       Si     0.301350000000     0.358990000000     0.658910000000     0          
Si       Si     0.361930000000     0.305230000000     0.412520000000     0          
Si       Si     0.383300000000     0.270330000000     0.623610000000     0          
Si       Si     0.279720000000     0.393970000000     0.447860000000     0          
O        O      0.341970000000     0.529610000000     0.346220000000     0          
O        O      0.483030000000     0.393470000000     0.476180000000     0          
O        O      0.384850000000     0.497940000000     0.521310000000     0          
O        O      0.407800000000     0.332070000000     0.368560000000     0          
O        O      0.393130000000     0.438290000000     0.375670000000     0          
O        O      0.460330000000     0.397780000000     0.287320000000     0          
O        O      0.462620000000     0.438380000000     0.629960000000     0          
O        O      0.323940000000     0.352390000000     0.431700000000     0          
O        O      0.661300000000     0.397760000000     0.715590000000     0          
O        O      0.562390000000     0.424160000000     0.613260000000     0          
O        O      0.296810000000     0.451980000000     0.416170000000     0          
O        O      0.442250000000     0.269740000000     0.696430000000     0          
O        O      0.281930000000     0.392950000000     0.560750000000     0          
O        O      0.605340000000     0.470200000000     0.779900000000     0          
O        O      0.454560000000     0.541870000000     0.658820000000     0          
O        O      0.490620000000     0.345000000000     0.817470000000     0          
O        O      0.350000000000     0.319570000000     0.652180000000     0          
O        O      0.249490000000     0.325360000000     0.678210000000     0          
O        O      0.388610000000     0.277780000000     0.514920000000     0          
O        O      0.325860000000     0.261270000000     0.337300000000     0          
Si       Si     0.271190000000     0.780150000000     0.856520000000     0          
O        O      0.278200000000     0.794350000000     0.967090000000     0          
Si       Si     0.922400000000     0.989730000000     0.619260000000     0          
Si       Si     0.118400000000     0.943020000000     0.676300000000     0          
Si       Si     0.936410000000     0.887200000000     0.375420000000     0          
Si       Si     0.002780000000     0.900230000000     0.588750000000     0          
Si       Si     0.856600000000     0.976410000000     0.407160000000     0          
Si       Si     0.805010000000     0.857740000000     0.659130000000     0          
Si       Si     0.862000000000     0.802590000000     0.410080000000     0          
Si       Si     0.884220000000     0.767120000000     0.620780000000     0          
Si       Si     0.782320000000     0.893190000000     0.448200000000     0          
O        O      0.842750000000     0.025370000000     0.333400000000     0          
O        O      0.980460000000     0.891950000000     0.476060000000     0          
O        O      0.889390000000     0.997430000000     0.510490000000     0          
O        O      0.908310000000     0.828290000000     0.365630000000     0          
O        O      0.892630000000     0.934400000000     0.365760000000     0          
O        O      0.964910000000     0.892380000000     0.289010000000     0          
O        O      0.970160000000     0.946180000000     0.629450000000     0          
O        O      0.825990000000     0.851110000000     0.431190000000     0          
O        O      0.162560000000     0.896620000000     0.713430000000     0          
O        O      0.064890000000     0.917540000000     0.607170000000     0          
O        O      0.799310000000     0.950950000000     0.415220000000     0          
O        O      0.943690000000     0.765530000000     0.692250000000     0          
O        O      0.785390000000     0.892250000000     0.561470000000     0          
O        O      0.104210000000     0.974010000000     0.764380000000     0          
O        O      0.947970000000     0.046830000000     0.655600000000     0          
O        O      0.983710000000     0.841330000000     0.817130000000     0          
O        O      0.852340000000     0.817230000000     0.650300000000     0          
O        O      0.752720000000     0.825230000000     0.679440000000     0          
O        O      0.888390000000     0.773930000000     0.511370000000     0          
O        O      0.853590000000     0.710110000000     0.630970000000     0          
O        O      0.824150000000     0.759850000000     0.334600000000     0          
Si       Si     0.774240000000     0.285020000000     0.861670000000     0          
O        O      0.798770000000     0.318460000000     0.957890000000     0          
Si       Si     0.565240000000     0.489520000000     0.842700000000     0          
Si       Si     0.368990000000     0.443640000000     0.784080000000     0          
Si       Si     0.549710000000     0.387130000000     0.084910000000     0          
Si       Si     0.484410000000     0.399780000000     0.871180000000     0          
Si       Si     0.630200000000     0.476420000000     0.055310000000     0          
Si       Si     0.684370000000     0.358790000000     0.804990000000     0          
Si       Si     0.624510000000     0.302610000000     0.050170000000     0          
Si       Si     0.604020000000     0.268310000000     0.839040000000     0          
Si       Si     0.705230000000     0.393140000000     0.016210000000     0          
O        O      0.643410000000     0.525530000000     0.129050000000     0          
O        O      0.505790000000     0.390740000000     0.983890000000     0          
O        O      0.599030000000     0.497300000000     0.951020000000     0          
O        O      0.578270000000     0.328380000000     0.094910000000     0          
O        O      0.593090000000     0.434650000000     0.094450000000     0          
O        O      0.520970000000     0.392590000000     0.171130000000     0          
O        O      0.517870000000     0.445820000000     0.833210000000     0          
O        O      0.661220000000     0.350850000000     0.030730000000     0          
O        O      0.323090000000     0.398790000000     0.747390000000     0          
O        O      0.422280000000     0.417270000000     0.852170000000     0          
O        O      0.687910000000     0.450630000000     0.050040000000     0          
O        O      0.545360000000     0.267290000000     0.765000000000     0          
O        O      0.766000000000     0.376280000000     0.080780000000     0          
O        O      0.382900000000     0.473420000000     0.694730000000     0          
O        O      0.539090000000     0.546530000000     0.807640000000     0          
O        O      0.502110000000     0.342350000000     0.639750000000     0          
O        O      0.636740000000     0.318390000000     0.812240000000     0          
O        O      0.736870000000     0.326300000000     0.785300000000     0          
O        O      0.598340000000     0.274730000000     0.947800000000     0          
O        O      0.634590000000     0.211240000000     0.828560000000     0          
O        O      0.661620000000     0.259200000000     0.125110000000     0          
Si       Si     0.714640000000     0.784540000000     0.602730000000     0          
Si       Si     0.066980000000     0.986300000000     0.835900000000     0          
Si       Si     0.871580000000     0.945010000000     0.777390000000     0          
Si       Si     0.050460000000     0.889480000000     0.082360000000     0          
Si       Si     0.985980000000     0.897870000000     0.870670000000     0          
Si       Si     0.131550000000     0.977870000000     0.047430000000     0          
Si       Si     0.186800000000     0.860170000000     0.805670000000     0          
Si       Si     0.125280000000     0.803440000000     0.047540000000     0          
Si       Si     0.104040000000     0.770050000000     0.839630000000     0          
Si       Si     0.207720000000     0.893120000000     0.013780000000     0          
O        O      0.144440000000     0.028410000000     0.117490000000     0          
O        O      0.003600000000     0.888240000000     0.984180000000     0          
O        O      0.105520000000     0.997760000000     0.940020000000     0          
O        O      0.083290000000     0.833270000000     0.096670000000     0          
O        O      0.089810000000     0.939400000000     0.081770000000     0          
O        O      0.025090000000     0.895370000000     0.172340000000     0          
O        O      0.029450000000     0.934640000000     0.836670000000     0          
O        O      0.170080000000     0.844640000000     0.030660000000     0          
O        O      0.828750000000     0.896570000000     0.748700000000     0          
O        O      0.927770000000     0.925960000000     0.847630000000     0          
O        O      0.188880000000     0.948230000000     0.053500000000     0          
O        O      0.047150000000     0.771050000000     0.760660000000     0          
O        O      0.200540000000     0.898170000000     0.899670000000     0          
O        O      0.881840000000     0.969920000000     0.680820000000     0          
O        O      0.031130000000     0.038940000000     0.805520000000     0          
O        O      0.996620000000     0.845050000000     0.640910000000     0          
O        O      0.143010000000     0.815650000000     0.815410000000     0          
O        O      0.242960000000     0.831610000000     0.794010000000     0          
O        O      0.093040000000     0.781280000000     0.943640000000     0          
O        O      0.131540000000     0.710420000000     0.839680000000     0          
O        O      0.270670000000     0.878030000000     0.069590000000     0          
O        O      0.157220000000     0.754620000000     0.115870000000     0          
Si       Si     0.212860000000     0.283840000000     0.601290000000     0          
Si       Si     0.565110000000     0.523740000000     0.343230000000     0          
Si       Si     0.369110000000     0.570440000000     0.286200000000     0          
Si       Si     0.551100000000     0.626260000000     0.587080000000     0          
Si       Si     0.484730000000     0.613230000000     0.373750000000     0          
Si       Si     0.630920000000     0.537050000000     0.555330000000     0          
Si       Si     0.682500000000     0.655720000000     0.303360000000     0          
Si       Si     0.625520000000     0.710870000000     0.552410000000     0          
Si       Si     0.603300000000     0.746350000000     0.341710000000     0          
Si       Si     0.705190000000     0.620280000000     0.514300000000     0          
O        O      0.644770000000     0.488090000000     0.629090000000     0          
O        O      0.507050000000     0.621510000000     0.486440000000     0          
O        O      0.598120000000     0.516030000000     0.452000000000     0          
O        O      0.579210000000     0.685170000000     0.596870000000     0          
O        O      0.594890000000     0.579060000000     0.596730000000     0          
O        O      0.522610000000     0.621080000000     0.673490000000     0          
O        O      0.517350000000     0.567270000000     0.333050000000     0          
O        O      0.661530000000     0.662350000000     0.531300000000     0          
O        O      0.324950000000     0.616840000000     0.249070000000     0          
O        O      0.422620000000     0.595920000000     0.355320000000     0          
O        O      0.688210000000     0.562510000000     0.547270000000     0          
O        O      0.543820000000     0.747930000000     0.270240000000     0          
O        O      0.702130000000     0.621210000000     0.401020000000     0          
O        O      0.383300000000     0.539450000000     0.198110000000     0          
O        O      0.539540000000     0.466630000000     0.306900000000     0          
O        O      0.503800000000     0.672130000000     0.145360000000     0          
O        O      0.635170000000     0.696230000000     0.312200000000     0          
O        O      0.734800000000     0.688230000000     0.283050000000     0          
O        O      0.599120000000     0.739530000000     0.451130000000     0          
O        O      0.633920000000     0.803350000000     0.331530000000     0          
O        O      0.663370000000     0.753610000000     0.627890000000     0          
Si       Si     0.713280000000     0.228440000000     0.100830000000     0          
O        O      0.752730000000     0.273070000000     0.078590000000     0          
Si       Si     0.065810000000     0.025730000000     0.335690000000     0          
Si       Si     0.870150000000     0.068390000000     0.277670000000     0          
Si       Si     0.051570000000     0.122550000000     0.584130000000     0          
Si       Si     0.984960000000     0.113680000000     0.372270000000     0          
Si       Si     0.132680000000     0.034830000000     0.547110000000     0          
Si       Si     0.186160000000     0.154470000000     0.303580000000     0          
Si       Si     0.125590000000     0.208240000000     0.549980000000     0          
Si       Si     0.104210000000     0.243130000000     0.338880000000     0          
Si       Si     0.207790000000     0.119490000000     0.514630000000     0          
O        O      0.145540000000     0.983850000000     0.616270000000     0          
O        O      0.004480000000     0.119990000000     0.486320000000     0          
O        O      0.102670000000     0.015520000000     0.441190000000     0          
O        O      0.079710000000     0.181390000000     0.593940000000     0          
O        O      0.094390000000     0.075170000000     0.586830000000     0          
O        O      0.027180000000     0.115680000000     0.675180000000     0          
O        O      0.024890000000     0.075080000000     0.332530000000     0          
O        O      0.163580000000     0.161080000000     0.530800000000     0          
O        O      0.826220000000     0.115710000000     0.246910000000     0          
O        O      0.925120000000     0.089310000000     0.349240000000     0          
O        O      0.190710000000     0.061480000000     0.546320000000     0          
O        O      0.045260000000     0.243720000000     0.266070000000     0          
O        O      0.205590000000     0.120510000000     0.401750000000     0          
O        O      0.882180000000     0.043270000000     0.182600000000     0          
O        O      0.032960000000     0.971590000000     0.303670000000     0          
O        O      0.996890000000     0.168450000000     0.145030000000     0          
O        O      0.137510000000     0.193890000000     0.310310000000     0          
O        O      0.238020000000     0.188110000000     0.284290000000     0          
O        O      0.098910000000     0.235680000000     0.447580000000     0          
O        O      0.133720000000     0.300850000000     0.329230000000     0          
O        O      0.268370000000     0.136910000000     0.579350000000     0          
O        O      0.161650000000     0.252190000000     0.625200000000     0          
Si       Si     0.216330000000     0.733310000000     0.105980000000     0          
O        O      0.258650000000     0.782030000000     0.135300000000     0          
Si       Si     0.420540000000     0.527160000000     0.126600000000     0          
Si       Si     0.615930000000     0.568450000000     0.185100000000     0          
Si       Si     0.437060000000     0.623980000000     0.880130000000     0          
Si       Si     0.501530000000     0.615590000000     0.091820000000     0          
Si       Si     0.355960000000     0.535590000000     0.915070000000     0          
Si       Si     0.300710000000     0.653290000000     0.156830000000     0          
Si       Si     0.362240000000     0.710020000000     0.914960000000     0          
Si       Si     0.383470000000     0.743410000000     0.122870000000     0          
Si       Si     0.279790000000     0.620340000000     0.948710000000     0          
O        O      0.343070000000     0.485060000000     0.845010000000     0          
O        O      0.483910000000     0.625220000000     0.978320000000     0          
O        O      0.381990000000     0.515710000000     0.022480000000     0          
O        O      0.404220000000     0.680190000000     0.865830000000     0          
O        O      0.397700000000     0.574070000000     0.880720000000     0          
O        O      0.462420000000     0.618090000000     0.790150000000     0          
O        O      0.458060000000     0.578820000000     0.125820000000     0          
O        O      0.317430000000     0.668820000000     0.931840000000     0          
O        O      0.658760000000     0.616890000000     0.213790000000     0          
O        O      0.559750000000     0.587510000000     0.114860000000     0          
O        O      0.298630000000     0.565240000000     0.909000000000     0          
O        O      0.440360000000     0.742410000000     0.201840000000     0          
O        O      0.286970000000     0.615290000000     0.062830000000     0          
O        O      0.605670000000     0.543540000000     0.281680000000     0          
O        O      0.456380000000     0.474520000000     0.156980000000     0          
O        O      0.490890000000     0.668410000000     0.321590000000     0          
O        O      0.344500000000     0.697810000000     0.147080000000     0          
O        O      0.244550000000     0.681850000000     0.168490000000     0          
O        O      0.394470000000     0.732180000000     0.018860000000     0          
O        O      0.330290000000     0.758840000000     0.846630000000     0          
Si       Si     0.274660000000     0.229620000000     0.361200000000     0          
O        O      0.234430000000     0.273490000000     0.383760000000     0          
Si       Si     0.922280000000     0.023940000000     0.119800000000     0          
Si       Si     0.118520000000     0.069830000000     0.178410000000     0          
Si       Si     0.937810000000     0.126330000000     0.877590000000     0          
Si       Si     0.003110000000     0.113680000000     0.091320000000     0          
Si       Si     0.857320000000     0.037040000000     0.907190000000     0          
Si       Si     0.803150000000     0.154670000000     0.157510000000     0          
Si       Si     0.863010000000     0.210850000000     0.912320000000     0          
Si       Si     0.883500000000     0.245150000000     0.123460000000     0          
Si       Si     0.782280000000     0.120320000000     0.946290000000     0          
O        O      0.844110000000     0.987930000000     0.833450000000     0          
O        O      0.981720000000     0.122730000000     0.978600000000     0          
O        O      0.888490000000     0.016160000000     0.011480000000     0          
O        O      0.909240000000     0.185080000000     0.867590000000     0          
O        O      0.894430000000     0.078810000000     0.868050000000     0          
O        O      0.966540000000     0.120870000000     0.791360000000     0          
O        O      0.969650000000     0.067630000000     0.129280000000     0          
O        O      0.826290000000     0.162610000000     0.931770000000     0          
O        O      0.164430000000     0.114670000000     0.215100000000     0          
O        O      0.065230000000     0.096200000000     0.110330000000     0          
O        O      0.799600000000     0.062830000000     0.912460000000     0          
O        O      0.942160000000     0.246170000000     0.197500000000     0          
O        O      0.784270000000     0.120460000000     0.059230000000     0          
O        O      0.104620000000     0.040050000000     0.267770000000     0          
O        O      0.948410000000     0.966930000000     0.154860000000     0          
O        O      0.985400000000     0.171120000000     0.322750000000     0          
O        O      0.850770000000     0.195070000000     0.150250000000     0          
O        O      0.750640000000     0.187170000000     0.177200000000     0          
O        O      0.889170000000     0.238730000000     0.014690000000     0          
O        O      0.852920000000     0.302220000000     0.133940000000     0          
O        O      0.825890000000     0.254260000000     0.837390000000     0          
Si       Si     0.772880000000     0.728920000000     0.359760000000     0          
O        O      0.798170000000     0.694890000000     0.454900000000     0          
O        O      0.733940000000     0.773420000000     0.384490000000     0          
Si       Si     0.494810000000     0.307480000000     0.729360000000     0          
Si       Si     0.993180000000     0.806940000000     0.728480000000     0          
Si       Si     0.494340000000     0.706520000000     0.234010000000     0          
Si       Si     0.992700000000     0.205980000000     0.233140000000     0          
Si       Si     0.493960000000     0.433850000000     0.230920000000     0          
Si       Si     0.993030000000     0.932690000000     0.229810000000     0          
Si       Si     0.494480000000     0.580770000000     0.732690000000     0          
Si       Si     0.993550000000     0.079610000000     0.731580000000     0          
O        O      0.219140000000     0.376550000000     0.383150000000     0          
Si       Si     0.192580000000     0.318330000000     0.396560000000     0          
O        O      0.187770000000     0.317250000000     0.505370000000     0          
O        O      0.353790000000     0.212610000000     0.633270000000     0          
Si       Si     0.294930000000     0.195130000000     0.565940000000     0          
O        O      0.299740000000     0.196210000000     0.457130000000     0          
O        O      0.253080000000     0.239970000000     0.578740000000     0          
Si       Si     0.693750000000     0.194660000000     0.895880000000     0          
O        O      0.734780000000     0.240390000000     0.883910000000     0          
O        O      0.688740000000     0.195000000000     0.004600000000     0          
O        O      0.721520000000     0.137180000000     0.881720000000     0          
Si       Si     0.793770000000     0.318810000000     0.066620000000     0          
Si       Si     0.195230000000     0.697440000000     0.887620000000     0          
O        O      0.216840000000     0.635430000000     0.892900000000     0          
O        O      0.209310000000     0.719110000000     0.995400000000     0          
Si       Si     0.693420000000     0.819350000000     0.398310000000     0          
O        O      0.689350000000     0.818580000000     0.507590000000     0          
O        O      0.721230000000     0.876780000000     0.384550000000     0          
Si       Si     0.292280000000     0.816020000000     0.074880000000     0          
O        O      0.355970000000     0.803040000000     0.122820000000     0          
Si       Si     0.794090000000     0.694110000000     0.564190000000     0          
O        O      0.766280000000     0.636680000000     0.577940000000     0          
O        O      0.753580000000     0.740040000000     0.578010000000     0          
O        O      0.228870000000     0.731430000000     0.827200000000     0          
O        O      0.703240000000     0.393000000000     0.903270000000     0          


