data_ReferenceDataBase/ZEO-5
_audit_creation_method             Generated by GULP
_audit_author_name                 Salvador R. G. Balestra
_symmetry_space_group_name_H-M     'P 1             '
_symmetry_Int_Tables_number        1

loop_
_symmetry_equiv_pos_site_id
_symmetry_equiv_pos_as_xyz
   1     +x,+y,+z                
_cell_length_a                       25.4666
_cell_length_b                       24.9267
_cell_length_c                       14.3968
_cell_angle_alpha                   90.0671
_cell_angle_beta                   104.5737
_cell_angle_gamma                   89.9516

loop_
_atom_site_label
_atom_site_type_symbol
_atom_site_fract_x
_atom_site_fract_y
_atom_site_fract_z
_atom_site_charge
  Si     Si        0.421699034751676    0.487728484855599    0.626807238988748  0.0000
  Si     Si        0.617363081097159    0.445069476990415    0.684829925053212  0.0000
  Si     Si        0.435945093720292    0.390915956275453    0.378373481151741  0.0000
  Si     Si        0.502551771402291    0.399777061882727    0.590226590838950  0.0000
  Si     Si        0.354835527271095    0.478635589450768    0.415387794172730  0.0000
  Si     Si        0.301354553489130    0.358989590585056    0.658912276695420  0.0000
  Si     Si        0.361929890263049    0.305226064718839    0.412518110775000  0.0000
  Si     Si        0.383302582351299    0.270332969005596    0.623613868049602  0.0000
  Si     Si        0.279720610973735    0.393973448838572    0.447861016706287  0.0000
  O      O         0.341971297512005    0.529614590417380    0.346220411403074  0.0000
  O      O         0.483033516142126    0.393469472372973    0.476179399301487  0.0000
  O      O         0.384846564628594    0.497939509495525    0.521307296667258  0.0000
  O      O         0.407801780930907    0.332074710051508    0.368557248819428  0.0000
  O      O         0.393126607052249    0.438292037062077    0.375665163505709  0.0000
  O      O         0.460333563897056    0.397777252441558    0.287319451723120  0.0000
  O      O         0.462617337046257    0.438379391535352    0.629963864195412  0.0000
  O      O         0.323939368211577    0.352385710980364    0.431697542553533  0.0000
  O      O         0.661296922685420    0.397756576802577    0.715589314797599  0.0000
  O      O         0.562393395416038    0.424156222455226    0.613264642236232  0.0000
  O      O         0.296809057062696    0.451975946092660    0.416173600816370  0.0000
  O      O         0.442250819768238    0.269741544603562    0.696426452014077  0.0000
  O      O         0.281930291100588    0.392952582613617    0.560748392417029  0.0000
  O      O         0.605335180187924    0.470203597351726    0.779896026039433  0.0000
  O      O         0.454559574851748    0.541870155407533    0.658824076659740  0.0000
  O      O         0.490620162871364    0.345003636690005    0.817470229621608  0.0000
  O      O         0.350003864602108    0.319570968809908    0.652181466572498  0.0000
  O      O         0.249490480791604    0.325356079342799    0.678205413155978  0.0000
  O      O         0.388608217033107    0.277779757854056    0.514917571765089  0.0000
  O      O         0.325864345047129    0.261269962322337    0.337295000206740  0.0000
  Si     Si        0.271186091828724    0.780147391672576    0.856515955510992  0.0000
  O      O         0.278203153597385    0.794352333877013    0.967092136657624  0.0000
  Si     Si        0.922402020918738    0.989725222632576    0.619264238127994  0.0000
  Si     Si        0.118401106073548    0.943021288152777    0.676298997481035  0.0000
  Si     Si        0.936413911786393    0.887203485556889    0.375416646669469  0.0000
  Si     Si        0.002782927139769    0.900229384559256    0.588749319009390  0.0000
  Si     Si        0.856597868995197    0.976413363794598    0.407158848635182  0.0000
  Si     Si        0.805009779150822    0.857737846585548    0.659133113903775  0.0000
  Si     Si        0.861996144060483    0.802589503580225    0.410081791615413  0.0000
  Si     Si        0.884217648152306    0.767115799000916    0.620781814042713  0.0000
  Si     Si        0.782322047265049    0.893185796614798    0.448196814129146  0.0000
  O      O         0.842749964007344    0.025366384019079    0.333396475665447  0.0000
  O      O         0.980463745719451    0.891954198644844    0.476058747808838  0.0000
  O      O         0.889390932163979    0.997428344528683    0.510488919295331  0.0000
  O      O         0.908309996175112    0.828293103243633    0.365630685112925  0.0000
  O      O         0.892628237417623    0.934404015579541    0.365759925319951  0.0000
  O      O         0.964910837288814    0.892381107721260    0.289013378467537  0.0000
  O      O         0.970155778281068    0.946184040478216    0.629445969283698  0.0000
  O      O         0.825989147866905    0.851110635576634    0.431193190975973  0.0000
  O      O         0.162564635868574    0.896619467281738    0.713430907710406  0.0000
  O      O         0.064894731157104    0.917540134382472    0.607174774929549  0.0000
  O      O         0.799305740619154    0.950951583279345    0.415222978817696  0.0000
  O      O         0.943693485883535    0.765531130487913    0.692254423738619  0.0000
  O      O         0.785385176879811    0.892254879908906    0.561473804886617  0.0000
  O      O         0.104212801956480    0.974011735771328    0.764382167118972  0.0000
  O      O         0.947974867067398    0.046830388667179    0.655595465681766  0.0000
  O      O         0.983713158855868    0.841331839620238    0.817133221408969  0.0000
  O      O         0.852344151447318    0.817232772272207    0.650295446860479  0.0000
  O      O         0.752717751652825    0.825228440248112    0.679440318637399  0.0000
  O      O         0.888393289067962    0.773933112034566    0.511366549675988  0.0000
  O      O         0.853593792586988    0.710111467603359    0.630965943570542  0.0000
  O      O         0.824148178994044    0.759853906370105    0.334601934781869  0.0000
  Si     Si        0.774238287825044    0.285024496717125    0.861666669603493  0.0000
  O      O         0.798771450327231    0.318459597116406    0.957893830310833  0.0000
  Si     Si        0.565236593254624    0.489524214327270    0.842701229921811  0.0000
  Si     Si        0.368990244918428    0.443637213574764    0.784084667967163  0.0000
  Si     Si        0.549706631623245    0.387127975267032    0.084908581729726  0.0000
  Si     Si        0.484410174173820    0.399778832977724    0.871176403805346  0.0000
  Si     Si        0.630196808736768    0.476416145099754    0.055310925502759  0.0000
  Si     Si        0.684366419938672    0.358786374267793    0.804986925118331  0.0000
  Si     Si        0.624508304992109    0.302606579234476    0.050173990204317  0.0000
  Si     Si        0.604015136887559    0.268306633596746    0.839036471431616  0.0000
  Si     Si        0.705234347541013    0.393136058539262    0.016206577433697  0.0000
  O      O         0.643406062883032    0.525530664176997    0.129047954260670  0.0000
  O      O         0.505794476943487    0.390735952622510    0.983894005976902  0.0000
  O      O         0.599025748810431    0.497304790139418    0.951020577362655  0.0000
  O      O         0.578271997345586    0.328383927668811    0.094909127714911  0.0000
  O      O         0.593088018717663    0.434649875417216    0.094446056032749  0.0000
  O      O         0.520971961013589    0.392586982127608    0.171130890539917  0.0000
  O      O         0.517873017283891    0.445821663143866    0.833211231444353  0.0000
  O      O         0.661222171675112    0.350851959571851    0.030730606863230  0.0000
  O      O         0.323086502409578    0.398790688355089    0.747394458770044  0.0000
  O      O         0.422284660798194    0.417265348367382    0.852169018772317  0.0000
  O      O         0.687909545822407    0.450627800225759    0.050043873352970  0.0000
  O      O         0.545355791977661    0.267287210860688    0.764999438237820  0.0000
  O      O         0.765999308205021    0.376281594771898    0.080782385313658  0.0000
  O      O         0.382895813391537    0.473417480048250    0.694729909160192  0.0000
  O      O         0.539094788044961    0.546528629523956    0.807641119140711  0.0000
  O      O         0.502114591108546    0.342345515393264    0.639749960458351  0.0000
  O      O         0.636740952742204    0.318389622635261    0.812241974782776  0.0000
  O      O         0.736873958115383    0.326296313959946    0.785301871114288  0.0000
  O      O         0.598341948526296    0.274734676461032    0.947802856847891  0.0000
  O      O         0.634590981360452    0.211244326392099    0.828558939963541  0.0000
  O      O         0.661620235384612    0.259199166257108    0.125107347428848  0.0000
  Si     Si        0.714637956239016    0.784544519594799    0.602732901281782  0.0000
  Si     Si        0.066979118382574    0.986302035608698    0.835896860955384  0.0000
  Si     Si        0.871584782343607    0.945011693550586    0.777390368590459  0.0000
  Si     Si        0.050456552699947    0.889484234825683    0.082361271373894  0.0000
  Si     Si        0.985980149527830    0.897867744586905    0.870673193136238  0.0000
  Si     Si        0.131552069336642    0.977872719266286    0.047430327992720  0.0000
  Si     Si        0.186802354605619    0.860169687778686    0.805665675888903  0.0000
  Si     Si        0.125277376500526    0.803437795584115    0.047537856815169  0.0000
  Si     Si        0.104044665235166    0.770050033151336    0.839629848130340  0.0000
  Si     Si        0.207720771895984    0.893123799726777    0.013785001105614  0.0000
  O      O         0.144442739900361    0.028405714993938    0.117486727778253  0.0000
  O      O         0.003599066394274    0.888241068057763    0.984176068759598  0.0000
  O      O         0.105524791262255    0.997755276766844    0.940015643666105  0.0000
  O      O         0.083289991872284    0.833268602511696    0.096665236897336  0.0000
  O      O         0.089812610245448    0.939395338332952    0.081774989261975  0.0000
  O      O         0.025088990906745    0.895367354043544    0.172336804622792  0.0000
  O      O         0.029452365146469    0.934636516748330    0.836672751259176  0.0000
  O      O         0.170081840740801    0.844644299321152    0.030661266024038  0.0000
  O      O         0.828752929154844    0.896572447092834    0.748704050956974  0.0000
  O      O         0.927765110980172    0.925958001741956    0.847632502886982  0.0000
  O      O         0.188882297273463    0.948225604322308    0.053499274304227  0.0000
  O      O         0.047148322959103    0.771049224470301    0.760659170328679  0.0000
  O      O         0.200538351404488    0.898168718298566    0.899669327849259  0.0000
  O      O         0.881837673480117    0.969924490710678    0.680818751828528  0.0000
  O      O         0.031131896420141    0.038939665125214    0.805522372871091  0.0000
  O      O         0.996622385853253    0.845049405057965    0.640911317331720  0.0000
  O      O         0.143010895682759    0.815646913209065    0.815412664784931  0.0000
  O      O         0.242964576251623    0.831612029941811    0.794008534931937  0.0000
  O      O         0.093044033893109    0.781280652217616    0.943635321768046  0.0000
  O      O         0.131544492400526    0.710421552691145    0.839679344454680  0.0000
  O      O         0.270669254639708    0.878028901039148    0.069592328174474  0.0000
  O      O         0.157219702138751    0.754624703255544    0.115872112778026  0.0000
  Si     Si        0.212855763554917    0.283839769713716    0.601292623234432  0.0000
  Si     Si        0.565111092157339    0.523736722549953    0.343230297254980  0.0000
  Si     Si        0.369112487609556    0.570441127072663    0.286197532267934  0.0000
  Si     Si        0.551101090523239    0.626256903580365    0.587080632629188  0.0000
  Si     Si        0.484730326275558    0.613231859948325    0.373748876960421  0.0000
  Si     Si        0.630916880715330    0.537047175438272    0.555334444922778  0.0000
  Si     Si        0.682504426048396    0.655723862393019    0.303361634160420  0.0000
  Si     Si        0.625518235663920    0.710871437253270    0.552413759817443  0.0000
  Si     Si        0.603296166513419    0.746345355624432    0.341713831960393  0.0000
  Si     Si        0.705192268041221    0.620275407973411    0.514297452584807  0.0000
  O      O         0.644765292143195    0.488093220507943    0.629094708527953  0.0000
  O      O         0.507049642398876    0.621507537986160    0.486439755589317  0.0000
  O      O         0.598124043488445    0.516032555311003    0.452004140261969  0.0000
  O      O         0.579205088554036    0.685167279429743    0.596866034328006  0.0000
  O      O         0.594886218791438    0.579056146063605    0.596733671292151  0.0000
  O      O         0.522607024474583    0.621078589602394    0.673487736905750  0.0000
  O      O         0.517354918347386    0.567274543439670    0.333053855614512  0.0000
  O      O         0.661525267973221    0.662350628995356    0.531301258819151  0.0000
  O      O         0.324947841376626    0.616842011362199    0.249066136902899  0.0000
  O      O         0.422617695236565    0.595923789924877    0.355322977215252  0.0000
  O      O         0.688208843990917    0.562509491350473    0.547270874636063  0.0000
  O      O         0.543820244707594    0.747929775012609    0.270241152007029  0.0000
  O      O         0.702129387518044    0.621206581186177    0.401020589349865  0.0000
  O      O         0.383301869418266    0.539452688592038    0.198113575177046  0.0000
  O      O         0.539540897931694    0.466631297054414    0.306895817369376  0.0000
  O      O         0.503799807745264    0.672129697389944    0.145361206269164  0.0000
  O      O         0.635169978200607    0.696228677520332    0.312200085723124  0.0000
  O      O         0.734796374607855    0.688233366247061    0.283054444114073  0.0000
  O      O         0.599120525091829    0.739527892918656    0.451129166550274  0.0000
  O      O         0.633920085176557    0.803349715924802    0.331529678978519  0.0000
  O      O         0.663366169509447    0.753607278179212    0.627893274685863  0.0000
  Si     Si        0.713275179821768    0.228436926078174    0.100831322623355  0.0000
  O      O         0.752727812769892    0.273069383722780    0.078588036271440  0.0000
  Si     Si        0.065814179070102    0.025733567491273    0.335687987004006  0.0000
  Si     Si        0.870151366506069    0.068394039383067    0.277667726101367  0.0000
  Si     Si        0.051570464975302    0.122545462317649    0.584125548731841  0.0000
  Si     Si        0.984961772865338    0.113684527436470    0.372273209291008  0.0000
  Si     Si        0.132678834378461    0.034825764181899    0.547107915326559  0.0000
  Si     Si        0.186161104979152    0.154471413964840    0.303583811301225  0.0000
  Si     Si        0.125585131379606    0.208235052503850    0.549977910594802  0.0000
  Si     Si        0.104212128993965    0.243127298309592    0.338881592795105  0.0000
  Si     Si        0.207794101810532    0.119487399235827    0.514634681769101  0.0000
  O      O         0.145542824019506    0.983846074642431    0.616273866381873  0.0000
  O      O         0.004481810098067    0.119991629799930    0.486320163289613  0.0000
  O      O         0.102666868314701    0.015523312768408    0.441187991781553  0.0000
  O      O         0.079713637631065    0.181386713488623    0.593940307276152  0.0000
  O      O         0.094388889401081    0.075169393343387    0.586833234875242  0.0000
  O      O         0.027182620735149    0.115684328138760    0.675180581900486  0.0000
  O      O         0.024892202578058    0.075079335840915    0.332531961482623  0.0000
  O      O         0.163575214399872    0.161075127594666    0.530797828077005  0.0000
  O      O         0.826215765345917    0.115705543877912    0.246910347541054  0.0000
  O      O         0.925118804452031    0.089308475692947    0.349238029640869  0.0000
  O      O         0.190705476022410    0.061484877554771    0.546321740881736  0.0000
  O      O         0.045264045897092    0.243717751155788    0.266067891711335  0.0000
  O      O         0.205585245100946    0.120508457174068    0.401747723777555  0.0000
  O      O         0.882182228496195    0.043267024394753    0.182598865922975  0.0000
  O      O         0.032957492477814    0.971590281765991    0.303668787523747  0.0000
  O      O         0.996889960110927    0.168454846249359    0.145027453263374  0.0000
  O      O         0.137511354823228    0.193889562628466    0.310314562718245  0.0000
  O      O         0.238024881025911    0.188105168374927    0.284290361912213  0.0000
  O      O         0.098906357786025    0.235680838725333    0.447577988369762  0.0000
  O      O         0.133724174706174    0.300846651497851    0.329230739660961  0.0000
  O      O         0.268374597346973    0.136909107108466    0.579347613583643  0.0000
  O      O         0.161650822691205    0.252191202031572    0.625200701562605  0.0000
  Si     Si        0.216326907167328    0.733314147294477    0.105981006642993  0.0000
  O      O         0.258646312667217    0.782031706603540    0.135294987155721  0.0000
  Si     Si        0.420535069532773    0.527159854476349    0.126599369870034  0.0000
  Si     Si        0.615928592726458    0.568451382427222    0.185103803406975  0.0000
  Si     Si        0.437055743174120    0.623977421083286    0.880132293017380  0.0000
  Si     Si        0.501533789890130    0.615594278119483    0.091819806551029  0.0000
  Si     Si        0.355961160762305    0.535588665241775    0.915066081170251  0.0000
  Si     Si        0.300710410912325    0.653291669244780    0.156831096764585  0.0000
  Si     Si        0.362235578774205    0.710023620085446    0.914958726353622  0.0000
  Si     Si        0.383468698777255    0.743410800006301    0.122867128386868  0.0000
  Si     Si        0.279792468942092    0.620337389453360    0.948712044084808  0.0000
  O      O         0.343070387725544    0.485055160558228    0.845010569980137  0.0000
  O      O         0.483913644882241    0.625221201808104    0.978317051874058  0.0000
  O      O         0.381988911330824    0.515706744384606    0.022480920098039  0.0000
  O      O         0.404222292499011    0.680193005612216    0.865829607627437  0.0000
  O      O         0.397700156560785    0.574066090108141    0.880720116854257  0.0000
  O      O         0.462421571076729    0.618094393183315    0.790154351601295  0.0000
  O      O         0.458063803487666    0.578823577001619    0.125822227771854  0.0000
  O      O         0.317431352588703    0.668816984051907    0.931835907893986  0.0000
  O      O         0.658761526236210    0.616889723634977    0.213789965774453  0.0000
  O      O         0.559749736778290    0.587505891295199    0.114858051410901  0.0000
  O      O         0.298630906828616    0.565235630213230    0.908997630683019  0.0000
  O      O         0.440364924850788    0.742410836797858    0.201838396727688  0.0000
  O      O         0.286974486222891    0.615292523043195    0.062827578037624  0.0000
  O      O         0.605673409532015    0.543541955079457    0.281675841208604  0.0000
  O      O         0.456380207058129    0.474521162252285    0.156975355883791  0.0000
  O      O         0.490893512255826    0.668410515787365    0.321585027840172  0.0000
  O      O         0.344502057060006    0.697814220567628    0.147083853756893  0.0000
  O      O         0.244548267456274    0.681849433385995    0.168488277463620  0.0000
  O      O         0.394469311247461    0.732180342409476    0.018861490922940  0.0000
  O      O         0.330293324037755    0.758836926534300    0.846625022633769  0.0000
  Si     Si        0.274659425261994    0.229621443768543    0.361203230129387  0.0000
  O      O         0.234431430229688    0.273489545110075    0.383759238648709  0.0000
  Si     Si        0.922278649898270    0.023937513248601    0.119796480394345  0.0000
  Si     Si        0.118524322926815    0.069825746116260    0.178411000289879  0.0000
  Si     Si        0.937806744168665    0.126333236484306    0.877587618714714  0.0000
  Si     Si        0.003105047184429    0.113682149953864    0.091318370323144  0.0000
  Si     Si        0.857317154960420    0.037044615452788    0.907188058505691  0.0000
  Si     Si        0.803146669650221    0.154674982177493    0.157511147736644  0.0000
  Si     Si        0.863005161838527    0.210854543815688    0.912324318159307  0.0000
  Si     Si        0.883498892242238    0.245154016994249    0.123461157827318  0.0000
  Si     Si        0.782279373702276    0.120324943444762    0.946293348791195  0.0000
  O      O         0.844107339844985    0.987930421817449    0.833450321513373  0.0000
  O      O         0.981720017085970    0.122726852645048    0.978601265443050  0.0000
  O      O         0.888488153820784    0.016155260052255    0.011478004213516  0.0000
  O      O         0.909240442354300    0.185076842263606    0.867586902879395  0.0000
  O      O         0.894426113353677    0.078810941304744    0.868053591630358  0.0000
  O      O         0.966539856696461    0.120873792420519    0.791363335664106  0.0000
  O      O         0.969647410047471    0.067633438386293    0.129279586359727  0.0000
  O      O         0.826291590404861    0.162609801274570    0.931772028527371  0.0000
  O      O         0.164430118299357    0.114670243216144    0.215101498783199  0.0000
  O      O         0.065232074956809    0.096200934234909    0.110325558109562  0.0000
  O      O         0.799604683304055    0.062833431536669    0.912455795192234  0.0000
  O      O         0.942158125677916    0.246173254709031    0.197499152361119  0.0000
  O      O         0.784271077164015    0.120460238041129    0.059229209507966  0.0000
  O      O         0.104616737603314    0.040048443634231    0.267766500662437  0.0000
  O      O         0.948414802542610    0.966932265494301    0.154864714820182  0.0000
  O      O         0.985401034823933    0.171115875668996    0.322750140744769  0.0000
  O      O         0.850772571373297    0.195070817836909    0.150253549193470  0.0000
  O      O         0.750640003410693    0.187166044258591    0.177197053225204  0.0000
  O      O         0.889172775505617    0.238727191120440    0.014694691776436  0.0000
  O      O         0.852922605754252    0.302216065112557    0.133939601746069  0.0000
  O      O         0.825892660422148    0.254261406450550    0.837390327012424  0.0000
  Si     Si        0.772876224767797    0.728916955403586    0.359762223319779  0.0000
  O      O         0.798166558320347    0.694886006583361    0.454903844737963  0.0000
  O      O         0.733937382327901    0.773421245607631    0.384489592039281  0.0000
  Si     Si        0.494811966540904    0.307479295667010    0.729360192349036  0.0000
  Si     Si        0.993175512148704    0.806942467841738    0.728481598537803  0.0000
  Si     Si        0.494338318275535    0.706518162576107    0.234014451577050  0.0000
  Si     Si        0.992701923069295    0.205980870062315    0.233137454989170  0.0000
  Si     Si        0.493963697659278    0.433846364965558    0.230917177716149  0.0000
  Si     Si        0.993034169360611    0.932691445887012    0.229809245709450  0.0000
  Si     Si        0.494479749227476    0.580769552292817    0.732688064849779  0.0000
  Si     Si        0.993550172347322    0.079614984399436    0.731578805658472  0.0000
  O      O         0.219139992954206    0.376551773558574    0.383148435949713  0.0000
  Si     Si        0.192584793864623    0.318326564689820    0.396559663226345  0.0000
  O      O         0.187773825239491    0.317248118577033    0.505367499902306  0.0000
  O      O         0.353790453757498    0.212613769670850    0.633265021162171  0.0000
  Si     Si        0.294929862133746    0.195134181220429    0.565935951675023  0.0000
  O      O         0.299741031211774    0.196212870958000    0.457128240700527  0.0000
  O      O         0.253083510134999    0.239971527879889    0.578736307910025  0.0000
  Si     Si        0.693748192403841    0.194655080539948    0.895875558402221  0.0000
  O      O         0.734784453935509    0.240393004109304    0.883908993635404  0.0000
  O      O         0.688743156283601    0.195000980731645    0.004604734058785  0.0000
  O      O         0.721515112994409    0.137179804754448    0.881715199766019  0.0000
  Si     Si        0.793765737669182    0.318805947685013    0.066622579315056  0.0000
  Si     Si        0.195234520861778    0.697438860093601    0.887615811111520  0.0000
  O      O         0.216844036370388    0.635432328811549    0.892904647557609  0.0000
  O      O         0.209309914919774    0.719109162055036    0.995404836231260  0.0000
  Si     Si        0.693419527782306    0.819353981411056    0.398308337335969  0.0000
  O      O         0.689347499800713    0.818575427452654    0.507591282178485  0.0000
  O      O         0.721234845455609    0.876776767981998    0.384551460797866  0.0000
  Si     Si        0.292278854520569    0.816022333792056    0.074881324747613  0.0000
  O      O         0.355968914619188    0.803039379457079    0.122817583898885  0.0000
  Si     Si        0.794094478915401    0.694107335511290    0.564186756962475  0.0000
  O      O         0.766279303859385    0.636684509792595    0.577943400819839  0.0000
  O      O         0.753576892168687    0.740040322910164    0.578005618161200  0.0000
  O      O         0.228866937804728    0.731429638563196    0.827202122193487  0.0000
  O      O         0.703240000000051    0.393000000000029    0.903270000000020  0.0000
