data_ReferenceDataBase/ZEO-3
_audit_creation_method             Generated by GULP
_audit_author_name                 Salvador R. G. Balestra
_symmetry_space_group_name_H-M     'P 1             '
_symmetry_Int_Tables_number        1

loop_
_symmetry_equiv_pos_site_id
_symmetry_equiv_pos_as_xyz
   1     +x,+y,+z                
_cell_length_a                       21.4536
_cell_length_b                       21.2370
_cell_length_c                       14.4174
_cell_angle_alpha                   90.0000
_cell_angle_beta                   108.3609
_cell_angle_gamma                   90.0000

loop_
_atom_site_label
_atom_site_type_symbol
_atom_site_fract_x
_atom_site_fract_y
_atom_site_fract_z
_atom_site_charge
  Si     Si        0.412982092529846    0.523069177781635    0.133588703473824  0.0000
  Si     Si        0.769701579807180    0.174022930012127    0.152775269571426  0.0000
  Si     Si        0.833456711527322    0.035251003875884    0.914716568206639  0.0000
  Si     Si        0.659347558717339    0.263713173083672    0.083832555561292  0.0000
  Si     Si        0.569945612037822    0.363442509790797    0.111603722862359  0.0000
  Si     Si        0.510631422958136    0.627893763582680    0.110843583941836  0.0000
  Si     Si        0.850435787538745    0.926659690105757    0.787966154426792  0.0000
  Si     Si        0.743603905110810    0.134103583825345    0.943268555708345  0.0000
  Si     Si        0.633196013602733    0.223541059790987    0.874494905165441  0.0000
  O      O         0.706625944305762    0.214105598416471    0.159257324587849  0.0000
  O      O         0.606964314630530    0.295747454535321    0.128330136602140  0.0000
  O      O         0.763429046581947    0.067644982004758    0.906624227720026  0.0000
  O      O         0.868560671260128    0.013103148030684    0.024834457654103  0.0000
  O      O         0.796487959461810    0.130349855997822    0.247751324816439  0.0000
  O      O         0.865927826481280    0.960159218236632    0.698086275612068  0.0000
  O      O         0.746023385929836    0.130397488875766    0.056042194624287  0.0000
  O      O         0.537217234791483    0.370394909541689    0.196149861854103  0.0000
  O      O         0.563045053720998    0.220981515212575    0.791113320951578  0.0000
  O      O         0.817980148304327    0.975523554636754    0.843834990941097  0.0000
  O      O         0.880539263571358    0.081801555856569    0.879990719539610  0.0000
  O      O         0.467563481441825    0.576775641309638    0.145618643510934  0.0000
  O      O         0.515054967673763    0.364587466915737    0.006336963938048  0.0000
  O      O         0.447638662514529    0.457208564065832    0.170907601502945  0.0000
  O      O         0.672450370412419    0.158140603121280    0.874184947521095  0.0000
  O      O         0.622864710069865    0.230667148109517    0.980275473620741  0.0000
  O      O         0.506545728780747    0.693278580402572    0.163306805036431  0.0000
  O      O         0.672622396518494    0.282770406962879    0.852614869474216  0.0000
  O      O         0.702817381400064    0.318002708199407    0.059730528267877  0.0000
  O      O         0.584724055593199    0.603886875867021    0.137171567856916  0.0000
  Si     Si        0.499908322025262    0.736417858799516    0.250843827960508  0.0000
  Si     Si        0.500174192581993    0.415397072255839    0.250659113036909  0.0000
  Si     Si        0.588035880405918    0.524085523427661    0.365879894466833  0.0000
  Si     Si        0.230364076745531    0.174155068149405    0.348331563687415  0.0000
  Si     Si        0.166793122985862    0.035718054801148    0.588386080289337  0.0000
  Si     Si        0.341385908875354    0.263187003791484    0.417075699184554  0.0000
  Si     Si        0.431010425419488    0.362490786769495    0.389353813681891  0.0000
  Si     Si        0.490316492279023    0.628264714893620    0.390660197651011  0.0000
  Si     Si        0.149782298242431    0.927173836077446    0.715025936675623  0.0000
  Si     Si        0.256462497683507    0.134073907316045    0.557737922235668  0.0000
  Si     Si        0.367472977573509    0.222866345284807    0.626263442189995  0.0000
  O      O         0.293446374326116    0.214079827981284    0.341482072374275  0.0000
  O      O         0.394070426359711    0.294722176013165    0.372603778106427  0.0000
  O      O         0.236679439190598    0.067628178771231    0.594467339857266  0.0000
  O      O         0.130683329381827    0.012975928587614    0.478865791364061  0.0000
  O      O         0.202995122351502    0.130744255142175    0.253053884484257  0.0000
  O      O         0.135206842100952    0.958827104812694    0.806966088470137  0.0000
  O      O         0.254153764359148    0.130447581379568    0.444993541298198  0.0000
  O      O         0.465123921859991    0.368992364998764    0.306265247743609  0.0000
  O      O         0.437661038995838    0.219960448731455    0.709597623701060  0.0000
  O      O         0.182663505823784    0.976653146124644    0.660657814614933  0.0000
  O      O         0.120439194008378    0.082867998943288    0.623565077118052  0.0000
  O      O         0.536415622665212    0.580275879089017    0.356167015627692  0.0000
  O      O         0.484775012121488    0.364235534581029    0.495452553215444  0.0000
  O      O         0.550376376818480    0.459447131562288    0.329744734820946  0.0000
  O      O         0.327675998663162    0.157875105259343    0.626898418554553  0.0000
  O      O         0.377575682091817    0.229605895479441    0.520287184847489  0.0000
  O      O         0.491861239335587    0.694557699481453    0.338923967384582  0.0000
  O      O         0.328525542996032    0.282492864297080    0.648035632625020  0.0000
  O      O         0.298726674213456    0.318097544536877    0.441627050046632  0.0000
  O      O         0.417300504053877    0.601226712853725    0.363144728719806  0.0000
  Si     Si        0.412982029770300    0.479408232282709    0.633588641450242  0.0000
  Si     Si        0.769701343956488    0.828454593723704    0.652775156054255  0.0000
  Si     Si        0.833456641569602    0.967226465528900    0.414716652065059  0.0000
  Si     Si        0.659347441595114    0.738764265986740    0.583832416160735  0.0000
  Si     Si        0.569945589204942    0.639034898306845    0.611603721165202  0.0000
  Si     Si        0.510631375534535    0.374583621157414    0.610843641205543  0.0000
  Si     Si        0.850435875164374    0.075817591261886    0.287966148613394  0.0000
  Si     Si        0.743603797273275    0.868373876313555    0.443268455843723  0.0000
  Si     Si        0.633195987653606    0.778936321786341    0.374494752115039  0.0000
  O      O         0.706625755797629    0.788371861366024    0.659257199040885  0.0000
  O      O         0.606964201544749    0.706729987968563    0.628329996981418  0.0000
  O      O         0.763428954941791    0.934832500551911    0.406624211057328  0.0000
  O      O         0.868560633697816    0.989374193521646    0.524834593777725  0.0000
  O      O         0.796487575114334    0.872127719333872    0.747751159963746  0.0000
  O      O         0.865927574278609    0.042317769756090    0.198086193313727  0.0000
  O      O         0.746023124129366    0.872079975063581    0.556042019666702  0.0000
  O      O         0.537217281086198    0.632082495319819    0.696149941146053  0.0000
  O      O         0.563045059074125    0.781495809541956    0.291113078246875  0.0000
  O      O         0.817980085823943    0.026953983699901    0.343835177584746  0.0000
  O      O         0.880539154272120    0.920675932259597    0.379990676486543  0.0000
  O      O         0.467563219754912    0.425701544951582    0.645618690781213  0.0000
  O      O         0.515054921263528    0.637889885576964    0.506336992859586  0.0000
  O      O         0.447638766923220    0.545268797109053    0.670907381470342  0.0000
  O      O         0.672450319177894    0.844336787391817    0.374184741807785  0.0000
  O      O         0.622864625339341    0.771810262587255    0.480275289977757  0.0000
  O      O         0.506545986301921    0.309198764848345    0.663306969250080  0.0000
  O      O         0.672622422004680    0.719706967281001    0.352614861762712  0.0000
  O      O         0.702817326334164    0.684474740542456    0.559730502505583  0.0000
  O      O         0.584723904880062    0.398590803485093    0.637171508578776  0.0000
  Si     Si        0.499908357469595    0.266059506941998    0.750843885636853  0.0000
  Si     Si        0.500174163743071    0.587080304640257    0.750659043268953  0.0000
  Si     Si        0.588035905503537    0.478391897462131    0.865879901123037  0.0000
  Si     Si        0.230364181369674    0.828322356381344    0.848331510053456  0.0000
  Si     Si        0.166793164967875    0.966759467683100    0.088385843220632  0.0000
  Si     Si        0.341385954547503    0.739290377023943    0.917075754565984  0.0000
  Si     Si        0.431010419792527    0.639986566614160    0.889353793448497  0.0000
  Si     Si        0.490316545508227    0.374212692370136    0.890660170083870  0.0000
  Si     Si        0.149782305262906    0.075303423542182    0.215026025711279  0.0000
  Si     Si        0.256462527712213    0.868403558392247    0.057737818189793  0.0000
  Si     Si        0.367472956348895    0.779611062575466    0.126263468702749  0.0000
  O      O         0.293446445402744    0.788397531203187    0.841482053846108  0.0000
  O      O         0.394070488913803    0.707755207527372    0.872603871141487  0.0000
  O      O         0.236679480392687    0.934849333027582    0.094467111047374  0.0000
  O      O         0.130683301291041    0.989501509269953    0.978865530749120  0.0000
  O      O         0.202995330473380    0.871733180134451    0.753053809587131  0.0000
  O      O         0.135207260135915    0.043649596657482    0.306966148045385  0.0000
  O      O         0.254153908798229    0.872029829401208    0.944993489385912  0.0000
  O      O         0.465123791023290    0.633484972656703    0.806265082710171  0.0000
  O      O         0.437661000471718    0.782516939054751    0.209597706091438  0.0000
  O      O         0.182663567004443    0.025824467127052    0.160657406944839  0.0000
  O      O         0.120439294193298    0.919609540677347    0.123564996764375  0.0000
  O      O         0.536415823203092    0.422201385231152    0.856167029655259  0.0000
  O      O         0.484775078822398    0.638241768508905    0.995452472084371  0.0000
  O      O         0.550376257665941    0.543030219562697    0.829744739104731  0.0000
  O      O         0.327675983528271    0.844602312621758    0.126898428737275  0.0000
  O      O         0.377575690460760    0.772871506880195    0.020287230170141  0.0000
  O      O         0.491861121740341    0.307919689749165    0.838923902835975  0.0000
  O      O         0.328525504579336    0.719984548375034    0.148035626488706  0.0000
  O      O         0.298726707413814    0.684379842905520    0.941627094509432  0.0000
  O      O         0.417300629191419    0.401250888117382    0.863144692557708  0.0000
  Si     Si        0.912718399683405    0.024085645882728    0.135311735331310  0.0000
  Si     Si        0.270390052838311    0.674155047993562    0.152859937177760  0.0000
  Si     Si        0.333961114863131    0.535717956267597    0.912805738232716  0.0000
  Si     Si        0.159368277448619    0.763187034282693    0.084115685143531  0.0000
  Si     Si        0.069743873473037    0.862490851325861    0.111837736763379  0.0000
  Si     Si        0.010437728532528    0.128264806005528    0.110531353491404  0.0000
  Si     Si        0.350971952532474    0.427173933592971    0.786165655477105  0.0000
  Si     Si        0.244291701982646    0.634073855570319    0.943453632178109  0.0000
  Si     Si        0.133281270829874    0.722866333818097    0.874927969677147  0.0000
  O      O         0.207307799698343    0.714079888630986    0.159709383494810  0.0000
  O      O         0.106683759010299    0.794722187480215    0.128587619662644  0.0000
  O      O         0.264074782228786    0.567628094034076    0.906724356192905  0.0000
  O      O         0.370070930950931    0.512975913161892    0.022326062453922  0.0000
  O      O         0.297758901795169    0.630744227577218    0.248137629310728  0.0000
  O      O         0.365547118385119    0.458827724206454    0.694225611241444  0.0000
  O      O         0.246600338845148    0.630447567779610    0.056197968040741  0.0000
  O      O         0.035630470768481    0.868992435415064    0.194926420619926  0.0000
  O      O         0.063093231944737    0.719960428607890    0.791593699755452  0.0000
  O      O         0.318090727757095    0.476652945392751    0.840534218290337  0.0000
  O      O         0.380315035754997    0.582867854136056    0.877626637977511  0.0000
  O      O         0.964338091560398    0.080276487185079    0.145024428527631  0.0000
  O      O         0.015979292481784    0.864235677645414    0.005739005205301  0.0000
  O      O         0.950378438284519    0.959447505655119    0.171446757733504  0.0000
  O      O         0.173078237328330    0.657875076033496    0.874293028496691  0.0000
  O      O         0.123178546962051    0.729605892301666    0.980904217353108  0.0000
  O      O         0.008893391442662    0.194557911693036    0.162267476307386  0.0000
  O      O         0.172228738450765    0.782492839748709    0.853155811289581  0.0000
  O      O         0.202027492325626    0.818097598414461    0.059564341510182  0.0000
  O      O         0.083453518612173    0.101226290646677    0.138047028806475  0.0000
  Si     Si        0.000845998378601    0.236417972520590    0.250347522937991  0.0000
  Si     Si        0.000580178765584    0.915397179283917    0.250532474556801  0.0000
  Si     Si        0.087772303098457    0.023069097038490    0.367603065000750  0.0000
  Si     Si        0.731052791496068    0.674022955910022    0.348416316138524  0.0000
  Si     Si        0.667297657686401    0.535251073248487    0.586475096414836  0.0000
  Si     Si        0.841406727019287    0.763713282700163    0.417359034069424  0.0000
  Si     Si        0.930808602371649    0.863442629699662    0.389587652183518  0.0000
  Si     Si        0.990122975921756    0.127893798687272    0.390347754258467  0.0000
  Si     Si        0.650318437343849    0.426659861926980    0.713225476339003  0.0000
  Si     Si        0.757150409306628    0.634103695982238    0.557923053141082  0.0000
  Si     Si        0.867558220248184    0.723541302549097    0.626696735508892  0.0000
  O      O         0.794128414092981    0.714105654892730    0.341934301964677  0.0000
  O      O         0.893789927985101    0.795747569050166    0.372861373820977  0.0000
  O      O         0.737325310164101    0.567645068513530    0.594567382004046  0.0000
  O      O         0.632193632077452    0.513103229198698    0.476357218542012  0.0000
  O      O         0.704266481833264    0.630349839555961    0.253440289797287  0.0000
  O      O         0.634826747727198    0.460159422348431    0.803105629033724  0.0000
  O      O         0.754731021100685    0.630397575245518    0.445149458747839  0.0000
  O      O         0.963536743773737    0.870395106492678    0.305041252304495  0.0000
  O      O         0.937709135190121    0.720981884446276    0.710078472149289  0.0000
  O      O         0.682774274154129    0.475523627352604    0.657356733235645  0.0000
  O      O         0.620215128146022    0.581801626919990    0.621201005485659  0.0000
  O      O         0.033191011922712    0.076775716391258    0.355572789456894  0.0000
  O      O         0.985699401822532    0.864587543285970    0.494854269226584  0.0000
  O      O         0.053115654453649    0.957208474612421    0.330284390553530  0.0000
  O      O         0.828303889356540    0.658140827963239    0.627006711619702  0.0000
  O      O         0.877889602789513    0.730667348478393    0.520916201547479  0.0000
  O      O         0.994208527208410    0.193278583793320    0.337884383910272  0.0000
  O      O         0.828131750122809    0.782770629257667    0.648576603120894  0.0000
  O      O         0.797936832840079    0.818002784756670    0.441460978116782  0.0000
  O      O         0.916030399601563    0.103886799248183    0.364019899900977  0.0000
  Si     Si        0.912718508717076    0.978391786690030    0.635311824985538  0.0000
  Si     Si        0.270390136463887    0.328322413983300    0.652859985168194  0.0000
  Si     Si        0.333961143895890    0.466759456678621    0.412805648376801  0.0000
  Si     Si        0.159368308035041    0.239290499400318    0.584115802806573  0.0000
  Si     Si        0.069743800063276    0.139986737779480    0.611837643254741  0.0000
  Si     Si        0.010437826522969    0.874212659821731    0.610531080050194  0.0000
  Si     Si        0.350971914946237    0.575303571281683    0.286165618977495  0.0000
  Si     Si        0.244291738955281    0.368403596057323    0.443453651179691  0.0000
  Si     Si        0.133281271060392    0.279611186618629    0.374928077160892  0.0000
  O      O         0.207307851770480    0.288397640760846    0.659709466285569  0.0000
  O      O         0.106683764454114    0.207755362413198    0.628587698470979  0.0000
  O      O         0.264074818009926    0.434849324856530    0.406724288493556  0.0000
  O      O         0.370070926765781    0.489501505692014    0.522325974971177  0.0000
  O      O         0.297759036984813    0.371733201804477    0.748137689562951  0.0000
  O      O         0.365547219062292    0.543649933709821    0.194225587006578  0.0000
  O      O         0.246600451758809    0.372029909762899    0.556198021051785  0.0000
  O      O         0.035630154494973    0.133485203851484    0.694926035576273  0.0000
  O      O         0.063093221898276    0.282517129726946    0.291593877328123  0.0000
  O      O         0.318090749057565    0.525824445797006    0.340534085077954  0.0000
  O      O         0.380315081084528    0.419609549028197    0.377626592846893  0.0000
  O      O         0.964338606798420    0.922201336807100    0.645024359153904  0.0000
  O      O         0.015979340822656    0.138241928142393    0.505738819422625  0.0000
  O      O         0.950378160901826    0.043030097715539    0.671446977643896  0.0000
  O      O         0.173078243118182    0.344602427526756    0.374293111586074  0.0000
  O      O         0.123178566952311    0.272871631689566    0.480904331156280  0.0000
  O      O         0.008893198377981    0.807919622144528    0.662267253288177  0.0000
  O      O         0.172228695281045    0.219984652961158    0.353155897888435  0.0000
  O      O         0.202027527984633    0.184379929145214    0.559564488116996  0.0000
  O      O         0.083453772272166    0.901250779506684    0.638046557832079  0.0000
  Si     Si        0.000846030918882    0.766059653036096    0.750347528263082  0.0000
  Si     Si        0.000580171134898    0.087080382425674    0.750532405457344  0.0000
  Si     Si        0.087772105761146    0.979408356226695    0.867602887678932  0.0000
  Si     Si        0.731052701524460    0.328454458834325    0.848416199295058  0.0000
  Si     Si        0.667297615274512    0.467226396503155    0.086475091460727  0.0000
  Si     Si        0.841406725220559    0.238764219436620    0.917358927871400  0.0000
  Si     Si        0.930808715087785    0.139034874174108    0.889587839877206  0.0000
  Si     Si        0.990122833589547    0.874583748204107    0.890347922406196  0.0000
  Si     Si        0.650318486595302    0.575817631477186    0.213225529023267  0.0000
  Si     Si        0.757150369608647    0.368373811793538    0.057922917439804  0.0000
  Si     Si        0.867558264193832    0.278936324090445    0.126696574019503  0.0000
  O      O         0.794128351553579    0.288371802146868    0.841934152880229  0.0000
  O      O         0.893789984806769    0.206729915736755    0.872861396992343  0.0000
  O      O         0.737325256137728    0.434832420686943    0.094567264827456  0.0000
  O      O         0.632193576120351    0.489374282726059    0.976357237753106  0.0000
  O      O         0.704266310472837    0.372127527120412    0.753440123999262  0.0000
  O      O         0.634826669016857    0.542318123899767    0.303105608670724  0.0000
  O      O         0.754730901078234    0.372079894570601    0.945149282812943  0.0000
  O      O         0.963537019404847    0.132082423509809    0.805041636295556  0.0000
  O      O         0.937709218921001    0.281495856968448    0.210078170445946  0.0000
  O      O         0.682774250455744    0.526953806968211    0.157356780887904  0.0000
  O      O         0.620215099783074    0.420675820593336    0.121200987312527  0.0000
  O      O         0.033190237565565    0.925702408378493    0.855572980484562  0.0000
  O      O         0.985699442831787    0.137889939491320    0.994854533572079  0.0000
  O      O         0.053116010523790    0.045269127752067    0.830283857478647  0.0000
  O      O         0.828303897595633    0.344336773517597    0.127006528411920  0.0000
  O      O         0.877889583654523    0.271810234928045    0.020916016199291  0.0000
  O      O         0.994209031111189    0.809199138694142    0.837884560403498  0.0000
  O      O         0.828131888186512    0.219706973969608    0.148576600602160  0.0000
  O      O         0.797936863237035    0.184474717103007    0.941460936471646  0.0000
  O      O         0.916029999999978    0.898590000000013    0.864019999999982  0.0000
