data_ReferenceDataBase/ZEO-3
_audit_creation_method             Generated by GULP
_audit_author_name                 Salvador R. G. Balestra
_symmetry_space_group_name_H-M     'P 1             '
_symmetry_Int_Tables_number        1

loop_
_symmetry_equiv_pos_site_id
_symmetry_equiv_pos_as_xyz
   1     +x,+y,+z                
_cell_length_a                       21.4536
_cell_length_b                       21.2370
_cell_length_c                       14.4174
_cell_angle_alpha                   90.0000
_cell_angle_beta                   108.3609
_cell_angle_gamma                   90.0000

loop_
_atom_site_label
_atom_site_type_symbol
_atom_site_fract_x
_atom_site_fract_y
_atom_site_fract_z
_atom_site_charge
  Si     Si        0.412982100000022    0.523069200000009    0.133588700000018  0.0000
  Si     Si        0.769701599999962    0.174022899999954    0.152775300000030  0.0000
  Si     Si        0.833456700000056    0.035251000000017    0.914716500000054  0.0000
  Si     Si        0.659347499999967    0.263713199999984    0.083832600000051  0.0000
  Si     Si        0.569945599999983    0.363442500000019    0.111603700000046  0.0000
  Si     Si        0.510631399999966    0.627893699999959    0.110843599999953  0.0000
  Si     Si        0.850435800000014    0.926659699999959    0.787966099999949  0.0000
  Si     Si        0.743603900000039    0.134103600000003    0.943268500000045  0.0000
  Si     Si        0.633195999999998    0.223541100000034    0.874494899999945  0.0000
  O      O         0.706625899999949    0.214105600000039    0.159257300000036  0.0000
  O      O         0.606964299999959    0.295747499999948    0.128330099999971  0.0000
  O      O         0.763428999999974    0.067644999999970    0.906624200000010  0.0000
  O      O         0.868560699999989    0.013103099999967    0.024834499999997  0.0000
  O      O         0.796487999999954    0.130349900000056    0.247751300000004  0.0000
  O      O         0.865927800000009    0.960159200000021    0.698086300000000  0.0000
  O      O         0.746023400000013    0.130397499999958    0.056042199999979  0.0000
  O      O         0.537217299999952    0.370394899999951    0.196149900000023  0.0000
  O      O         0.563044999999988    0.220981499999994    0.791113300000006  0.0000
  O      O         0.817980199999965    0.975523500000008    0.843835000000013  0.0000
  O      O         0.880539200000044    0.081801599999949    0.879990700000008  0.0000
  O      O         0.467563499999983    0.576775699999985    0.145618600000034  0.0000
  O      O         0.515054899999996    0.364587499999971    0.006337000000030  0.0000
  O      O         0.447638699999970    0.457208599999944    0.170907599999964  0.0000
  O      O         0.672450400000002    0.158140600000024    0.874185000000011  0.0000
  O      O         0.622864700000036    0.230667100000005    0.980275499999948  0.0000
  O      O         0.506545699999947    0.693278599999985    0.163306799999987  0.0000
  O      O         0.672622400000023    0.282770400000004    0.852614900000049  0.0000
  O      O         0.702817399999958    0.318002699999965    0.059730500000001  0.0000
  O      O         0.584724100000017    0.603886900000020    0.137171599999988  0.0000
  Si     Si        0.499908300000016    0.736417800000027    0.250843799999984  0.0000
  Si     Si        0.500174199999947    0.415397099999950    0.250659100000007  0.0000
  Si     Si        0.588035900000023    0.524085499999956    0.365879899999982  0.0000
  Si     Si        0.230364099999974    0.174155100000007    0.348331600000051  0.0000
  Si     Si        0.166793099999950    0.035718100000054    0.588386099999980  0.0000
  Si     Si        0.341385899999977    0.263187000000016    0.417075700000055  0.0000
  Si     Si        0.431010399999991    0.362490800000046    0.389353799999981  0.0000
  Si     Si        0.490316499999949    0.628264700000045    0.390660199999957  0.0000
  Si     Si        0.149782299999970    0.927173899999957    0.715025999999966  0.0000
  Si     Si        0.256462499999998    0.134073899999976    0.557737900000006  0.0000
  Si     Si        0.367473000000018    0.222866299999964    0.626263399999971  0.0000
  O      O         0.293446399999993    0.214079800000036    0.341482100000007  0.0000
  O      O         0.394070400000032    0.294722200000024    0.372603799999979  0.0000
  O      O         0.236679399999957    0.067628199999945    0.594467300000019  0.0000
  O      O         0.130683299999987    0.012975900000015    0.478865799999994  0.0000
  O      O         0.202995099999953    0.130744199999981    0.253053900000054  0.0000
  O      O         0.135206799999992    0.958827100000008    0.806966099999954  0.0000
  O      O         0.254153800000040    0.130447600000025    0.444993599999975  0.0000
  O      O         0.465123899999980    0.368992400000025    0.306265199999984  0.0000
  O      O         0.437661100000014    0.219960499999956    0.709597600000052  0.0000
  O      O         0.182663499999990    0.976653199999987    0.660657799999967  0.0000
  O      O         0.120439199999964    0.082867999999962    0.623565099999951  0.0000
  O      O         0.536415600000055    0.580275899999947    0.356167000000028  0.0000
  O      O         0.484775000000013    0.364235499999950    0.495452600000021  0.0000
  O      O         0.550376400000005    0.459447100000034    0.329744699999992  0.0000
  O      O         0.327675999999997    0.157875099999956    0.626898399999959  0.0000
  O      O         0.377575699999966    0.229605900000024    0.520287199999984  0.0000
  O      O         0.491861299999982    0.694557700000018    0.338924000000020  0.0000
  O      O         0.328525499999955    0.282492899999966    0.648035599999957  0.0000
  O      O         0.298726699999975    0.318097500000022    0.441627100000005  0.0000
  O      O         0.417300500000010    0.601226699999984    0.363144700000021  0.0000
  Si     Si        0.412982000000056    0.479408199999966    0.633588600000053  0.0000
  Si     Si        0.769701400000031    0.828454599999986    0.652775199999951  0.0000
  Si     Si        0.833456599999977    0.967226399999959    0.414716699999985  0.0000
  Si     Si        0.659347400000001    0.738764299999957    0.583832400000006  0.0000
  Si     Si        0.569945599999983    0.639034899999956    0.611603700000046  0.0000
  Si     Si        0.510631399999966    0.374583600000051    0.610843700000032  0.0000
  Si     Si        0.850435899999979    0.075817600000050    0.287966200000028  0.0000
  Si     Si        0.743603799999960    0.868373900000051    0.443268399999965  0.0000
  Si     Si        0.633195999999998    0.778936300000055    0.374494799999979  0.0000
  O      O         0.706625799999983    0.788371900000016    0.659257199999956  0.0000
  O      O         0.606964199999993    0.706729999999993    0.628330000000005  0.0000
  O      O         0.763428900000008    0.934832499999970    0.406624200000010  0.0000
  O      O         0.868560600000023    0.989374200000043    0.524834599999963  0.0000
  O      O         0.796487599999978    0.872127699999965    0.747751200000039  0.0000
  O      O         0.865927599999964    0.042317799999978    0.198086200000034  0.0000
  O      O         0.746023100000002    0.872079999999983    0.556042000000048  0.0000
  O      O         0.537217299999952    0.632082500000024    0.696149900000023  0.0000
  O      O         0.563045099999954    0.781495800000016    0.291113099999961  0.0000
  O      O         0.817980100000000    0.026954000000046    0.343835199999944  0.0000
  O      O         0.880539200000044    0.920675899999992    0.379990700000008  0.0000
  O      O         0.467563199999972    0.425701600000025    0.645618700000000  0.0000
  O      O         0.515054899999996    0.637889900000005    0.506337000000030  0.0000
  O      O         0.447638800000050    0.545268800000031    0.670907400000033  0.0000
  O      O         0.672450300000037    0.844336799999951    0.374184700000001  0.0000
  O      O         0.622864599999957    0.771810200000004    0.480275300000017  0.0000
  O      O         0.506545999999958    0.309198799999990    0.663307000000032  0.0000
  O      O         0.672622400000023    0.719706999999971    0.352614799999969  0.0000
  O      O         0.702817299999992    0.684474799999975    0.559730500000001  0.0000
  O      O         0.584723899999972    0.398590799999965    0.637171500000022  0.0000
  Si     Si        0.499908399999981    0.266059499999983    0.750843899999950  0.0000
  Si     Si        0.500174199999947    0.587080300000025    0.750659000000041  0.0000
  Si     Si        0.588035900000023    0.478391900000020    0.865879899999982  0.0000
  Si     Si        0.230364200000054    0.828322400000047    0.848331499999972  0.0000
  Si     Si        0.166793200000029    0.966759400000001    0.088385799999969  0.0000
  Si     Si        0.341386000000057    0.739290399999959    0.917075800000021  0.0000
  Si     Si        0.431010399999991    0.639986600000043    0.889353799999981  0.0000
  Si     Si        0.490316499999949    0.374212700000044    0.890660199999957  0.0000
  Si     Si        0.149782299999970    0.075303400000053    0.215025999999966  0.0000
  Si     Si        0.256462499999998    0.868403599999965    0.057737800000041  0.0000
  Si     Si        0.367472900000053    0.779611100000011    0.126263500000050  0.0000
  O      O         0.293446499999959    0.788397600000053    0.841482000000042  0.0000
  O      O         0.394070499999998    0.707755199999951    0.872603899999945  0.0000
  O      O         0.236679500000037    0.934849299999996    0.094467099999974  0.0000
  O      O         0.130683299999987    0.989501499999960    0.978865499999984  0.0000
  O      O         0.202995299999998    0.871733199999994    0.753053799999975  0.0000
  O      O         0.135207300000047    0.043649599999981    0.306966200000033  0.0000
  O      O         0.254153900000006    0.872029799999950    0.944993500000010  0.0000
  O      O         0.465123800000015    0.633484999999951    0.806265100000019  0.0000
  O      O         0.437661000000048    0.782516999999984    0.209597700000018  0.0000
  O      O         0.182663599999955    0.025824499999999    0.160657399999991  0.0000
  O      O         0.120439300000044    0.919609499999979    0.123564999999985  0.0000
  O      O         0.536415799999986    0.422201399999949    0.856167000000028  0.0000
  O      O         0.484775099999979    0.638241799999946    0.995452500000056  0.0000
  O      O         0.550376199999960    0.543030199999976    0.829744799999958  0.0000
  O      O         0.327675999999997    0.844602300000020    0.126898399999959  0.0000
  O      O         0.377575699999966    0.772871499999951    0.020287199999984  0.0000
  O      O         0.491861100000051    0.307919699999957    0.838923900000054  0.0000
  O      O         0.328525499999955    0.719984500000010    0.148035599999957  0.0000
  O      O         0.298726699999975    0.684379799999988    0.941627100000005  0.0000
  O      O         0.417300599999976    0.401250900000036    0.863144700000021  0.0000
  Si     Si        0.912718400000017    0.024085600000035    0.135311699999988  0.0000
  Si     Si        0.270390099999986    0.674155100000007    0.152859899999953  0.0000
  Si     Si        0.333961100000010    0.535717999999974    0.912805700000035  0.0000
  Si     Si        0.159368299999983    0.763187099999982    0.084115699999984  0.0000
  Si     Si        0.069743900000049    0.862490800000046    0.111837700000024  0.0000
  Si     Si        0.010437700000011    0.128264800000011    0.110531400000013  0.0000
  Si     Si        0.350971999999956    0.427173899999957    0.786165699999970  0.0000
  Si     Si        0.244291699999962    0.634073899999976    0.943453599999998  0.0000
  Si     Si        0.133281300000021    0.722866400000044    0.874927999999954  0.0000
  O      O         0.207307799999967    0.714079900000002    0.159709399999997  0.0000
  O      O         0.106683800000042    0.794722200000024    0.128587599999946  0.0000
  O      O         0.264074800000003    0.567628099999979    0.906724299999951  0.0000
  O      O         0.370070899999973    0.512975900000015    0.022326099999987  0.0000
  O      O         0.297758899999963    0.630744199999981    0.248137599999950  0.0000
  O      O         0.365547099999958    0.458827700000029    0.694225599999982  0.0000
  O      O         0.246600299999955    0.630447600000025    0.056197999999995  0.0000
  O      O         0.035630500000025    0.868992400000025    0.194926399999986  0.0000
  O      O         0.063093200000026    0.719960499999956    0.791593700000021  0.0000
  O      O         0.318090699999971    0.476653000000056    0.840534199999979  0.0000
  O      O         0.380314999999996    0.582867899999997    0.877626699999951  0.0000
  O      O         0.964338099999964    0.080276499999968    0.145024400000011  0.0000
  O      O         0.015979300000026    0.864235699999995    0.005738999999949  0.0000
  O      O         0.950378399999977    0.959447500000010    0.171446800000012  0.0000
  O      O         0.173078199999964    0.657875099999956    0.874292999999966  0.0000
  O      O         0.123178499999995    0.729605900000024    0.980904200000055  0.0000
  O      O         0.008893400000034    0.194557899999950    0.162267499999984  0.0000
  O      O         0.172228700000005    0.782492800000000    0.853155799999968  0.0000
  O      O         0.202027499999986    0.818097599999987    0.059564300000034  0.0000
  O      O         0.083453500000019    0.101226300000008    0.138047000000029  0.0000
  Si     Si        0.000846000000024    0.236417999999958    0.250347499999975  0.0000
  Si     Si        0.000580199999945    0.915397200000029    0.250532499999963  0.0000
  Si     Si        0.087772299999983    0.023069100000043    0.367603099999997  0.0000
  Si     Si        0.731052800000043    0.674023000000034    0.348416300000054  0.0000
  Si     Si        0.667297699999949    0.535251099999982    0.586475100000030  0.0000
  Si     Si        0.841406699999993    0.763713299999949    0.417359000000033  0.0000
  Si     Si        0.930808599999978    0.863442699999950    0.389587600000027  0.0000
  Si     Si        0.990123000000040    0.127893800000038    0.390347700000007  0.0000
  Si     Si        0.650318399999946    0.426659900000004    0.713225500000021  0.0000
  Si     Si        0.757150400000000    0.634103699999969    0.557923100000039  0.0000
  Si     Si        0.867558199999962    0.723541299999965    0.626696700000025  0.0000
  O      O         0.794128399999977    0.714105700000005    0.341934300000048  0.0000
  O      O         0.893789900000002    0.795747600000027    0.372861400000033  0.0000
  O      O         0.737325299999952    0.567645100000050    0.594567399999960  0.0000
  O      O         0.632193600000051    0.513103200000046    0.476357200000052  0.0000
  O      O         0.704266500000017    0.630349799999976    0.253440299999966  0.0000
  O      O         0.634826699999962    0.460159399999952    0.803105699999946  0.0000
  O      O         0.754730999999992    0.630397600000038    0.445149499999957  0.0000
  O      O         0.963536699999963    0.870395099999996    0.305041299999971  0.0000
  O      O         0.937709199999972    0.720981899999970    0.710078500000009  0.0000
  O      O         0.682774200000040    0.475523599999974    0.657356700000037  0.0000
  O      O         0.620215099999996    0.581801700000028    0.621201000000042  0.0000
  O      O         0.033190999999988    0.076775699999985    0.355572800000004  0.0000
  O      O         0.985699400000044    0.864587499999971    0.494854300000043  0.0000
  O      O         0.053115700000035    0.957208499999979    0.330284399999982  0.0000
  O      O         0.828303900000037    0.658140799999956    0.627006700000038  0.0000
  O      O         0.877889600000003    0.730667400000016    0.520916199999988  0.0000
  O      O         0.994208500000013    0.193278599999985    0.337884400000007  0.0000
  O      O         0.828131699999972    0.782770600000049    0.648576599999956  0.0000
  O      O         0.797936899999968    0.818002800000045    0.441461000000004  0.0000
  O      O         0.916030399999954    0.103886800000055    0.364019900000017  0.0000
  Si     Si        0.912718499999983    0.978391800000054    0.635311799999954  0.0000
  Si     Si        0.270390099999986    0.328322400000047    0.652860000000032  0.0000
  Si     Si        0.333961100000010    0.466759400000001    0.412805599999956  0.0000
  Si     Si        0.159368299999983    0.239290500000038    0.584115799999950  0.0000
  Si     Si        0.069743799999969    0.139986700000009    0.611837599999944  0.0000
  Si     Si        0.010437799999977    0.874212700000044    0.610531100000003  0.0000
  Si     Si        0.350971899999990    0.575303599999984    0.286165600000004  0.0000
  Si     Si        0.244291699999962    0.368403599999965    0.443453599999998  0.0000
  Si     Si        0.133281300000021    0.279611199999977    0.374928100000034  0.0000
  O      O         0.207307799999967    0.288397600000053    0.659709499999963  0.0000
  O      O         0.106683800000042    0.207755399999996    0.628587700000026  0.0000
  O      O         0.264074800000003    0.434849299999996    0.406724299999951  0.0000
  O      O         0.370070899999973    0.489501499999960    0.522326000000021  0.0000
  O      O         0.297759000000042    0.371733199999994    0.748137700000029  0.0000
  O      O         0.365547200000037    0.543649899999991    0.194225599999982  0.0000
  O      O         0.246600400000034    0.372029900000030    0.556197999999995  0.0000
  O      O         0.035630200000014    0.133485199999996    0.694926000000009  0.0000
  O      O         0.063093200000026    0.282517099999950    0.291593899999953  0.0000
  O      O         0.318090699999971    0.525824400000033    0.340534100000013  0.0000
  O      O         0.380315099999962    0.419609499999979    0.377626599999985  0.0000
  O      O         0.964338600000019    0.922201299999983    0.645024400000011  0.0000
  O      O         0.015979300000026    0.138241900000025    0.505738800000017  0.0000
  O      O         0.950378200000046    0.043030100000010    0.671446999999944  0.0000
  O      O         0.173078199999964    0.344602399999985    0.374293100000045  0.0000
  O      O         0.123178599999960    0.272871600000030    0.480904300000020  0.0000
  O      O         0.008893199999989    0.807919599999991    0.662267300000053  0.0000
  O      O         0.172228700000005    0.219984700000055    0.353155900000047  0.0000
  O      O         0.202027499999986    0.184379899999954    0.559564499999965  0.0000
  O      O         0.083453800000029    0.901250799999957    0.638046600000052  0.0000
  Si     Si        0.000846000000024    0.766059599999949    0.750347600000055  0.0000
  Si     Si        0.000580199999945    0.087080399999991    0.750532399999997  0.0000
  Si     Si        0.087772100000052    0.979408400000011    0.867602899999952  0.0000
  Si     Si        0.731052699999964    0.328454500000021    0.848416199999974  0.0000
  Si     Si        0.667297599999984    0.467226399999959    0.086475100000030  0.0000
  Si     Si        0.841406699999993    0.238764199999991    0.917358899999954  0.0000
  Si     Si        0.930808699999943    0.139034899999956    0.889587799999958  0.0000
  Si     Si        0.990122899999960    0.874583700000017    0.890347900000052  0.0000
  Si     Si        0.650318500000026    0.575817600000050    0.213225500000021  0.0000
  Si     Si        0.757150400000000    0.368373799999972    0.057922899999994  0.0000
  Si     Si        0.867558199999962    0.278936300000055    0.126696599999946  0.0000
  O      O         0.794128399999977    0.288371800000050    0.841934100000003  0.0000
  O      O         0.893789999999967    0.206729900000028    0.872861400000033  0.0000
  O      O         0.737325299999952    0.434832400000005    0.094567299999994  0.0000
  O      O         0.632193600000051    0.489374300000009    0.976357200000052  0.0000
  O      O         0.704266299999972    0.372127500000033    0.753440100000034  0.0000
  O      O         0.634826699999962    0.542318099999989    0.303105599999981  0.0000
  O      O         0.754730900000027    0.372079900000017    0.945149300000026  0.0000
  O      O         0.963536999999974    0.132082399999945    0.805041599999981  0.0000
  O      O         0.937709199999972    0.281495899999982    0.210078199999998  0.0000
  O      O         0.682774200000040    0.526953800000001    0.157356800000002  0.0000
  O      O         0.620215099999996    0.420675800000026    0.121201000000042  0.0000
  O      O         0.033190200000035    0.925702399999977    0.855573000000049  0.0000
  O      O         0.985699400000044    0.137889900000005    0.994854499999974  0.0000
  O      O         0.053116000000045    0.045269100000041    0.830283900000040  0.0000
  O      O         0.828303900000037    0.344336799999951    0.127006499999993  0.0000
  O      O         0.877889600000003    0.271810200000004    0.020916000000057  0.0000
  O      O         0.994209100000035    0.809199199999966    0.837884499999973  0.0000
  O      O         0.828131900000017    0.219706999999971    0.148576599999956  0.0000
  O      O         0.797936899999968    0.184474700000010    0.941460900000038  0.0000
  O      O         0.916029999999978    0.898590000000013    0.864019999999982  0.0000
