data_ITW

_audit_creation_method RASPA-1.0
_audit_creation_date 2024-2-5
_audit_author_name 'Salvador Rodríguez Gómez'

_cell_length_a    10.45
_cell_length_b    15.028
_cell_length_c    17.908
_cell_angle_alpha 90
_cell_angle_beta  105.64
_cell_angle_gamma 90
_cell_volume      2708.19

_symmetry_cell_setting          triclinic
_symmetry_space_group_name_Hall 'P 1'
_symmetry_space_group_name_H-M  'P 1'
_symmetry_Int_Tables_number     1

_symmetry_equiv_pos_as_xyz 'x,y,z'

loop_
_atom_site_label
_atom_site_type_symbol
_atom_site_fract_x
_atom_site_fract_y
_atom_site_fract_z
_atom_site_charge
O        O      0.500000000000     0.226600000000     0.000000000000     0          
O        O      0.309400000000     0.164100000000     0.385750000000     0          
O        O      0.346700000000     0.336700000000     0.400550000000     0          
O        O      0.250000000000     0.250000000000     0.000000000000     0          
O        O      0.436700000000     0.389500000000     0.134300000000     0          
O        O      0.342300000000     0.366100000000     0.254900000000     0          
O        O      0.258100000000     0.500000000000     0.159800000000     0          
O        O      0.363200000000     0.500000000000     0.351750000000     0          
Si       Si     0.351600000000     0.244500000000     0.446950000000     0          
Si       Si     0.306700000000     0.397900000000     0.165850000000     0          
Si       Si     0.403900000000     0.397900000000     0.343150000000     0          
O        O      0.690600000000     0.164100000000     0.114250000000     0          
O        O      0.653300000000     0.336700000000     0.099450000000     0          
O        O      0.750000000000     0.250000000000     0.000000000000     0          
O        O      0.563300000000     0.389500000000     0.365700000000     0          
O        O      0.657700000000     0.366100000000     0.245100000000     0          
O        O      0.741900000000     0.500000000000     0.340200000000     0          
O        O      0.636800000000     0.500000000000     0.148250000000     0          
Si       Si     0.648400000000     0.244500000000     0.053050000000     0          
Si       Si     0.693300000000     0.397900000000     0.334150000000     0          
Si       Si     0.596100000000     0.397900000000     0.156850000000     0          
O        O      0.500000000000     0.773400000000     0.000000000000     0          
O        O      0.690600000000     0.835900000000     0.114250000000     0          
O        O      0.653300000000     0.663300000000     0.099450000000     0          
O        O      0.750000000000     0.750000000000     0.000000000000     0          
O        O      0.563300000000     0.610500000000     0.365700000000     0          
O        O      0.657700000000     0.633900000000     0.245100000000     0          
Si       Si     0.648400000000     0.755500000000     0.053050000000     0          
Si       Si     0.693300000000     0.602100000000     0.334150000000     0          
Si       Si     0.596100000000     0.602100000000     0.156850000000     0          
O        O      0.309400000000     0.835900000000     0.385750000000     0          
O        O      0.346700000000     0.663300000000     0.400550000000     0          
O        O      0.250000000000     0.750000000000     0.000000000000     0          
O        O      0.436700000000     0.610500000000     0.134300000000     0          
O        O      0.342300000000     0.633900000000     0.254900000000     0          
Si       Si     0.351600000000     0.755500000000     0.446950000000     0          
Si       Si     0.306700000000     0.602100000000     0.165850000000     0          
Si       Si     0.403900000000     0.602100000000     0.343150000000     0          
O        O      0.000000000000     0.726600000000     0.000000000000     0          
O        O      0.809400000000     0.664100000000     0.385750000000     0          
O        O      0.846700000000     0.836700000000     0.400550000000     0          
O        O      0.936700000000     0.889500000000     0.134300000000     0          
O        O      0.842300000000     0.866100000000     0.254900000000     0          
O        O      0.758100000000     0.000000000000     0.159800000000     0          
O        O      0.863200000000     0.000000000000     0.351750000000     0          
Si       Si     0.851600000000     0.744500000000     0.446950000000     0          
Si       Si     0.806700000000     0.897900000000     0.165850000000     0          
Si       Si     0.903900000000     0.897900000000     0.343150000000     0          
O        O      0.190600000000     0.664100000000     0.114250000000     0          
O        O      0.153300000000     0.836700000000     0.099450000000     0          
O        O      0.063300000000     0.889500000000     0.365700000000     0          
O        O      0.157700000000     0.866100000000     0.245100000000     0          
O        O      0.241900000000     0.000000000000     0.340200000000     0          
O        O      0.136800000000     0.000000000000     0.148250000000     0          
Si       Si     0.148400000000     0.744500000000     0.053050000000     0          
Si       Si     0.193300000000     0.897900000000     0.334150000000     0          
Si       Si     0.096100000000     0.897900000000     0.156850000000     0          
O        O      0.000000000000     0.273400000000     0.000000000000     0          
O        O      0.190600000000     0.335900000000     0.114250000000     0          
O        O      0.153300000000     0.163300000000     0.099450000000     0          
O        O      0.063300000000     0.110500000000     0.365700000000     0          
O        O      0.157700000000     0.133900000000     0.245100000000     0          
Si       Si     0.148400000000     0.255500000000     0.053050000000     0          
Si       Si     0.193300000000     0.102100000000     0.334150000000     0          
Si       Si     0.096100000000     0.102100000000     0.156850000000     0          
O        O      0.809400000000     0.335900000000     0.385750000000     0          
O        O      0.846700000000     0.163300000000     0.400550000000     0          
O        O      0.936700000000     0.110500000000     0.134300000000     0          
O        O      0.842300000000     0.133900000000     0.254900000000     0          
Si       Si     0.851600000000     0.255500000000     0.446950000000     0          
Si       Si     0.806700000000     0.102100000000     0.165850000000     0          
Si       Si     0.903900000000     0.102100000000     0.343150000000     0          
O        O      0.500000000000     0.226600000000     0.500000000000     0          
O        O      0.309400000000     0.164100000000     0.885750000000     0          
O        O      0.346700000000     0.336700000000     0.900550000000     0          
O        O      0.250000000000     0.250000000000     0.500000000000     0          
O        O      0.436700000000     0.389500000000     0.634300000000     0          
O        O      0.342300000000     0.366100000000     0.754900000000     0          
O        O      0.258100000000     0.500000000000     0.659800000000     0          
O        O      0.363200000000     0.500000000000     0.851750000000     0          
Si       Si     0.351600000000     0.244500000000     0.946950000000     0          
Si       Si     0.306700000000     0.397900000000     0.665850000000     0          
Si       Si     0.403900000000     0.397900000000     0.843150000000     0          
O        O      0.690600000000     0.164100000000     0.614250000000     0          
O        O      0.653300000000     0.336700000000     0.599450000000     0          
O        O      0.750000000000     0.250000000000     0.500000000000     0          
O        O      0.563300000000     0.389500000000     0.865700000000     0          
O        O      0.657700000000     0.366100000000     0.745100000000     0          
O        O      0.741900000000     0.500000000000     0.840200000000     0          
O        O      0.636800000000     0.500000000000     0.648250000000     0          
Si       Si     0.648400000000     0.244500000000     0.553050000000     0          
Si       Si     0.693300000000     0.397900000000     0.834150000000     0          
Si       Si     0.596100000000     0.397900000000     0.656850000000     0          
O        O      0.500000000000     0.773400000000     0.500000000000     0          
O        O      0.690600000000     0.835900000000     0.614250000000     0          
O        O      0.653300000000     0.663300000000     0.599450000000     0          
O        O      0.750000000000     0.750000000000     0.500000000000     0          
O        O      0.563300000000     0.610500000000     0.865700000000     0          
O        O      0.657700000000     0.633900000000     0.745100000000     0          
Si       Si     0.648400000000     0.755500000000     0.553050000000     0          
Si       Si     0.693300000000     0.602100000000     0.834150000000     0          
Si       Si     0.596100000000     0.602100000000     0.656850000000     0          
O        O      0.309400000000     0.835900000000     0.885750000000     0          
O        O      0.346700000000     0.663300000000     0.900550000000     0          
O        O      0.250000000000     0.750000000000     0.500000000000     0          
O        O      0.436700000000     0.610500000000     0.634300000000     0          
O        O      0.342300000000     0.633900000000     0.754900000000     0          
Si       Si     0.351600000000     0.755500000000     0.946950000000     0          
Si       Si     0.306700000000     0.602100000000     0.665850000000     0          
Si       Si     0.403900000000     0.602100000000     0.843150000000     0          
O        O      0.000000000000     0.726600000000     0.500000000000     0          
O        O      0.809400000000     0.664100000000     0.885750000000     0          
O        O      0.846700000000     0.836700000000     0.900550000000     0          
O        O      0.936700000000     0.889500000000     0.634300000000     0          
O        O      0.842300000000     0.866100000000     0.754900000000     0          
O        O      0.758100000000     0.000000000000     0.659800000000     0          
O        O      0.863200000000     0.000000000000     0.851750000000     0          
Si       Si     0.851600000000     0.744500000000     0.946950000000     0          
Si       Si     0.806700000000     0.897900000000     0.665850000000     0          
Si       Si     0.903900000000     0.897900000000     0.843150000000     0          
O        O      0.190600000000     0.664100000000     0.614250000000     0          
O        O      0.153300000000     0.836700000000     0.599450000000     0          
O        O      0.063300000000     0.889500000000     0.865700000000     0          
O        O      0.157700000000     0.866100000000     0.745100000000     0          
O        O      0.241900000000     0.000000000000     0.840200000000     0          
O        O      0.136800000000     0.000000000000     0.648250000000     0          
Si       Si     0.148400000000     0.744500000000     0.553050000000     0          
Si       Si     0.193300000000     0.897900000000     0.834150000000     0          
Si       Si     0.096100000000     0.897900000000     0.656850000000     0          
O        O      0.000000000000     0.273400000000     0.500000000000     0          
O        O      0.190600000000     0.335900000000     0.614250000000     0          
O        O      0.153300000000     0.163300000000     0.599450000000     0          
O        O      0.063300000000     0.110500000000     0.865700000000     0          
O        O      0.157700000000     0.133900000000     0.745100000000     0          
Si       Si     0.148400000000     0.255500000000     0.553050000000     0          
Si       Si     0.193300000000     0.102100000000     0.834150000000     0          
Si       Si     0.096100000000     0.102100000000     0.656850000000     0          
O        O      0.809400000000     0.335900000000     0.885750000000     0          
O        O      0.846700000000     0.163300000000     0.900550000000     0          
O        O      0.936700000000     0.110500000000     0.634300000000     0          
O        O      0.842300000000     0.133900000000     0.754900000000     0          
Si       Si     0.851600000000     0.255500000000     0.946950000000     0          
Si       Si     0.806700000000     0.102100000000     0.665850000000     0          
Si       Si     0.903900000000     0.102100000000     0.843150000000     0          


