data_ReferenceDataBase/ITW
_audit_creation_method             Generated by GULP
_audit_author_name                 Salvador R. G. Balestra
_symmetry_space_group_name_H-M     'P 1             '
_symmetry_Int_Tables_number        1

loop_
_symmetry_equiv_pos_site_id
_symmetry_equiv_pos_as_xyz
   1     +x,+y,+z                
_cell_length_a                       10.4500
_cell_length_b                       15.0280
_cell_length_c                       17.9080
_cell_angle_alpha                   90.0000
_cell_angle_beta                   105.6400
_cell_angle_gamma                   90.0000

loop_
_atom_site_label
_atom_site_type_symbol
_atom_site_fract_x
_atom_site_fract_y
_atom_site_fract_z
_atom_site_charge
  O      O         0.500000000000000    0.226599999999962    0.000000000000000  0.0000
  O      O         0.309399999999982    0.164099999999962    0.385750000000030  0.0000
  O      O         0.346700000000055    0.336699999999951    0.400549999999953  0.0000
  O      O         0.250000000000000    0.250000000000000    0.000000000000000  0.0000
  O      O         0.436699999999973    0.389499999999998    0.134300000000053  0.0000
  O      O         0.342300000000023    0.366099999999960    0.254900000000021  0.0000
  O      O         0.258100000000013    0.500000000000000    0.159800000000018  0.0000
  O      O         0.363200000000006    0.500000000000000    0.351750000000038  0.0000
  Si     Si        0.351599999999962    0.244500000000016    0.446950000000015  0.0000
  Si     Si        0.306699999999978    0.397900000000050    0.165849999999978  0.0000
  Si     Si        0.403900000000021    0.397900000000050    0.343150000000037  0.0000
  O      O         0.690600000000018    0.164099999999962    0.114249999999970  0.0000
  O      O         0.653299999999945    0.336699999999951    0.099450000000047  0.0000
  O      O         0.750000000000000    0.250000000000000    0.000000000000000  0.0000
  O      O         0.563300000000027    0.389499999999998    0.365699999999947  0.0000
  O      O         0.657699999999977    0.366099999999960    0.245099999999979  0.0000
  O      O         0.741899999999987    0.500000000000000    0.340199999999982  0.0000
  O      O         0.636799999999994    0.500000000000000    0.148249999999962  0.0000
  Si     Si        0.648400000000038    0.244500000000016    0.053049999999985  0.0000
  Si     Si        0.693300000000022    0.397900000000050    0.334150000000022  0.0000
  Si     Si        0.596099999999979    0.397900000000050    0.156849999999963  0.0000
  O      O         0.500000000000000    0.773400000000038    0.000000000000000  0.0000
  O      O         0.690600000000018    0.835900000000038    0.114249999999970  0.0000
  O      O         0.653299999999945    0.663300000000049    0.099450000000047  0.0000
  O      O         0.750000000000000    0.750000000000000    0.000000000000000  0.0000
  O      O         0.563300000000027    0.610500000000002    0.365699999999947  0.0000
  O      O         0.657699999999977    0.633900000000040    0.245099999999979  0.0000
  Si     Si        0.648400000000038    0.755499999999984    0.053049999999985  0.0000
  Si     Si        0.693300000000022    0.602099999999950    0.334150000000022  0.0000
  Si     Si        0.596099999999979    0.602099999999950    0.156849999999963  0.0000
  O      O         0.309399999999982    0.835900000000038    0.385750000000030  0.0000
  O      O         0.346700000000055    0.663300000000049    0.400549999999953  0.0000
  O      O         0.250000000000000    0.750000000000000    0.000000000000000  0.0000
  O      O         0.436699999999973    0.610500000000002    0.134300000000053  0.0000
  O      O         0.342300000000023    0.633900000000040    0.254900000000021  0.0000
  Si     Si        0.351599999999962    0.755499999999984    0.446950000000015  0.0000
  Si     Si        0.306699999999978    0.602099999999950    0.165849999999978  0.0000
  Si     Si        0.403900000000021    0.602099999999950    0.343150000000037  0.0000
  O      O         0.000000000000000    0.726599999999962    0.000000000000000  0.0000
  O      O         0.809399999999982    0.664099999999962    0.385750000000030  0.0000
  O      O         0.846700000000055    0.836699999999951    0.400549999999953  0.0000
  O      O         0.936699999999973    0.889499999999998    0.134300000000053  0.0000
  O      O         0.842300000000023    0.866099999999960    0.254900000000021  0.0000
  O      O         0.758100000000013    0.000000000000000    0.159800000000018  0.0000
  O      O         0.863200000000006    0.000000000000000    0.351750000000038  0.0000
  Si     Si        0.851599999999962    0.744500000000016    0.446950000000015  0.0000
  Si     Si        0.806699999999978    0.897900000000050    0.165849999999978  0.0000
  Si     Si        0.903900000000021    0.897900000000050    0.343150000000037  0.0000
  O      O         0.190600000000018    0.664099999999962    0.114249999999970  0.0000
  O      O         0.153299999999945    0.836699999999951    0.099450000000047  0.0000
  O      O         0.063300000000027    0.889499999999998    0.365699999999947  0.0000
  O      O         0.157699999999977    0.866099999999960    0.245099999999979  0.0000
  O      O         0.241899999999987    0.000000000000000    0.340199999999982  0.0000
  O      O         0.136799999999994    0.000000000000000    0.148249999999962  0.0000
  Si     Si        0.148400000000038    0.744500000000016    0.053049999999985  0.0000
  Si     Si        0.193300000000022    0.897900000000050    0.334150000000022  0.0000
  Si     Si        0.096099999999979    0.897900000000050    0.156849999999963  0.0000
  O      O         0.000000000000000    0.273400000000038    0.000000000000000  0.0000
  O      O         0.190600000000018    0.335900000000038    0.114249999999970  0.0000
  O      O         0.153299999999945    0.163300000000049    0.099450000000047  0.0000
  O      O         0.063300000000027    0.110500000000002    0.365699999999947  0.0000
  O      O         0.157699999999977    0.133900000000040    0.245099999999979  0.0000
  Si     Si        0.148400000000038    0.255499999999984    0.053049999999985  0.0000
  Si     Si        0.193300000000022    0.102099999999950    0.334150000000022  0.0000
  Si     Si        0.096099999999979    0.102099999999950    0.156849999999963  0.0000
  O      O         0.809399999999982    0.335900000000038    0.385750000000030  0.0000
  O      O         0.846700000000055    0.163300000000049    0.400549999999953  0.0000
  O      O         0.936699999999973    0.110500000000002    0.134300000000053  0.0000
  O      O         0.842300000000023    0.133900000000040    0.254900000000021  0.0000
  Si     Si        0.851599999999962    0.255499999999984    0.446950000000015  0.0000
  Si     Si        0.806699999999978    0.102099999999950    0.165849999999978  0.0000
  Si     Si        0.903900000000021    0.102099999999950    0.343150000000037  0.0000
  O      O         0.500000000000000    0.226599999999962    0.500000000000000  0.0000
  O      O         0.309399999999982    0.164099999999962    0.885750000000030  0.0000
  O      O         0.346700000000055    0.336699999999951    0.900549999999953  0.0000
  O      O         0.250000000000000    0.250000000000000    0.500000000000000  0.0000
  O      O         0.436699999999973    0.389499999999998    0.634300000000053  0.0000
  O      O         0.342300000000023    0.366099999999960    0.754900000000021  0.0000
  O      O         0.258100000000013    0.500000000000000    0.659800000000018  0.0000
  O      O         0.363200000000006    0.500000000000000    0.851750000000038  0.0000
  Si     Si        0.351599999999962    0.244500000000016    0.946950000000015  0.0000
  Si     Si        0.306699999999978    0.397900000000050    0.665849999999978  0.0000
  Si     Si        0.403900000000021    0.397900000000050    0.843150000000037  0.0000
  O      O         0.690600000000018    0.164099999999962    0.614249999999970  0.0000
  O      O         0.653299999999945    0.336699999999951    0.599450000000047  0.0000
  O      O         0.750000000000000    0.250000000000000    0.500000000000000  0.0000
  O      O         0.563300000000027    0.389499999999998    0.865699999999947  0.0000
  O      O         0.657699999999977    0.366099999999960    0.745099999999979  0.0000
  O      O         0.741899999999987    0.500000000000000    0.840199999999982  0.0000
  O      O         0.636799999999994    0.500000000000000    0.648249999999962  0.0000
  Si     Si        0.648400000000038    0.244500000000016    0.553049999999985  0.0000
  Si     Si        0.693300000000022    0.397900000000050    0.834150000000022  0.0000
  Si     Si        0.596099999999979    0.397900000000050    0.656849999999963  0.0000
  O      O         0.500000000000000    0.773400000000038    0.500000000000000  0.0000
  O      O         0.690600000000018    0.835900000000038    0.614249999999970  0.0000
  O      O         0.653299999999945    0.663300000000049    0.599450000000047  0.0000
  O      O         0.750000000000000    0.750000000000000    0.500000000000000  0.0000
  O      O         0.563300000000027    0.610500000000002    0.865699999999947  0.0000
  O      O         0.657699999999977    0.633900000000040    0.745099999999979  0.0000
  Si     Si        0.648400000000038    0.755499999999984    0.553049999999985  0.0000
  Si     Si        0.693300000000022    0.602099999999950    0.834150000000022  0.0000
  Si     Si        0.596099999999979    0.602099999999950    0.656849999999963  0.0000
  O      O         0.309399999999982    0.835900000000038    0.885750000000030  0.0000
  O      O         0.346700000000055    0.663300000000049    0.900549999999953  0.0000
  O      O         0.250000000000000    0.750000000000000    0.500000000000000  0.0000
  O      O         0.436699999999973    0.610500000000002    0.634300000000053  0.0000
  O      O         0.342300000000023    0.633900000000040    0.754900000000021  0.0000
  Si     Si        0.351599999999962    0.755499999999984    0.946950000000015  0.0000
  Si     Si        0.306699999999978    0.602099999999950    0.665849999999978  0.0000
  Si     Si        0.403900000000021    0.602099999999950    0.843150000000037  0.0000
  O      O         0.000000000000000    0.726599999999962    0.500000000000000  0.0000
  O      O         0.809399999999982    0.664099999999962    0.885750000000030  0.0000
  O      O         0.846700000000055    0.836699999999951    0.900549999999953  0.0000
  O      O         0.936699999999973    0.889499999999998    0.634300000000053  0.0000
  O      O         0.842300000000023    0.866099999999960    0.754900000000021  0.0000
  O      O         0.758100000000013    0.000000000000000    0.659800000000018  0.0000
  O      O         0.863200000000006    0.000000000000000    0.851750000000038  0.0000
  Si     Si        0.851599999999962    0.744500000000016    0.946950000000015  0.0000
  Si     Si        0.806699999999978    0.897900000000050    0.665849999999978  0.0000
  Si     Si        0.903900000000021    0.897900000000050    0.843150000000037  0.0000
  O      O         0.190600000000018    0.664099999999962    0.614249999999970  0.0000
  O      O         0.153299999999945    0.836699999999951    0.599450000000047  0.0000
  O      O         0.063300000000027    0.889499999999998    0.865699999999947  0.0000
  O      O         0.157699999999977    0.866099999999960    0.745099999999979  0.0000
  O      O         0.241899999999987    0.000000000000000    0.840199999999982  0.0000
  O      O         0.136799999999994    0.000000000000000    0.648249999999962  0.0000
  Si     Si        0.148400000000038    0.744500000000016    0.553049999999985  0.0000
  Si     Si        0.193300000000022    0.897900000000050    0.834150000000022  0.0000
  Si     Si        0.096099999999979    0.897900000000050    0.656849999999963  0.0000
  O      O         0.000000000000000    0.273400000000038    0.500000000000000  0.0000
  O      O         0.190600000000018    0.335900000000038    0.614249999999970  0.0000
  O      O         0.153299999999945    0.163300000000049    0.599450000000047  0.0000
  O      O         0.063300000000027    0.110500000000002    0.865699999999947  0.0000
  O      O         0.157699999999977    0.133900000000040    0.745099999999979  0.0000
  Si     Si        0.148400000000038    0.255499999999984    0.553049999999985  0.0000
  Si     Si        0.193300000000022    0.102099999999950    0.834150000000022  0.0000
  Si     Si        0.096099999999979    0.102099999999950    0.656849999999963  0.0000
  O      O         0.809399999999982    0.335900000000038    0.885750000000030  0.0000
  O      O         0.846700000000055    0.163300000000049    0.900549999999953  0.0000
  O      O         0.936699999999973    0.110500000000002    0.634300000000053  0.0000
  O      O         0.842300000000023    0.133900000000040    0.754900000000021  0.0000
  Si     Si        0.851599999999962    0.255499999999984    0.946950000000015  0.0000
  Si     Si        0.806699999999978    0.102099999999950    0.665849999999978  0.0000
  Si     Si        0.903900000000021    0.102099999999950    0.843150000000037  0.0000
