data_ReferenceDataBase/SOD
_audit_creation_method             Generated by GULP
_audit_author_name                 Salvador R. G. Balestra
_symmetry_space_group_name_H-M     'P 1             '
_symmetry_Int_Tables_number        1

loop_
_symmetry_equiv_pos_site_id
_symmetry_equiv_pos_as_xyz
   1     +x,+y,+z                
_cell_length_a                       17.9300
_cell_length_b                       17.9300
_cell_length_c                       17.9300
_cell_angle_alpha                   90.0000
_cell_angle_beta                    90.0000
_cell_angle_gamma                   90.0000

loop_
_atom_site_label
_atom_site_type_symbol
_atom_site_fract_x
_atom_site_fract_y
_atom_site_fract_z
_atom_site_charge
  O      O         0.073350000000005    0.250000000000000    0.426649999999995  0.0000
  Si     Si        0.125000000000000    0.250000000000000    0.000000000000000  0.0000
  O      O         0.250000000000000    0.073350000000005    0.426649999999995  0.0000
  Si     Si        0.250000000000000    0.125000000000000    0.000000000000000  0.0000
  O      O         0.426649999999995    0.250000000000000    0.426649999999995  0.0000
  Si     Si        0.375000000000000    0.250000000000000    0.000000000000000  0.0000
  O      O         0.250000000000000    0.426649999999995    0.426649999999995  0.0000
  Si     Si        0.250000000000000    0.375000000000000    0.000000000000000  0.0000
  O      O         0.073350000000005    0.250000000000000    0.073350000000005  0.0000
  O      O         0.250000000000000    0.073350000000005    0.073350000000005  0.0000
  O      O         0.426649999999995    0.250000000000000    0.073350000000005  0.0000
  O      O         0.250000000000000    0.426649999999995    0.073350000000005  0.0000
  O      O         0.426649999999995    0.073350000000005    0.250000000000000  0.0000
  Si     Si        0.000000000000000    0.125000000000000    0.250000000000000  0.0000
  O      O         0.426649999999995    0.426649999999995    0.250000000000000  0.0000
  Si     Si        0.375000000000000    0.000000000000000    0.250000000000000  0.0000
  O      O         0.073350000000005    0.426649999999995    0.250000000000000  0.0000
  Si     Si        0.000000000000000    0.375000000000000    0.250000000000000  0.0000
  O      O         0.073350000000005    0.073350000000005    0.250000000000000  0.0000
  Si     Si        0.125000000000000    0.000000000000000    0.250000000000000  0.0000
  Si     Si        0.250000000000000    0.000000000000000    0.125000000000000  0.0000
  Si     Si        0.250000000000000    0.000000000000000    0.375000000000000  0.0000
  Si     Si        0.000000000000000    0.250000000000000    0.375000000000000  0.0000
  Si     Si        0.000000000000000    0.250000000000000    0.125000000000000  0.0000
  O      O         0.323350000000005    0.000000000000000    0.176649999999995  0.0000
  O      O         0.000000000000000    0.323350000000005    0.176649999999995  0.0000
  O      O         0.176649999999995    0.000000000000000    0.176649999999995  0.0000
  O      O         0.000000000000000    0.176649999999995    0.176649999999995  0.0000
  O      O         0.323350000000005    0.000000000000000    0.323350000000005  0.0000
  O      O         0.000000000000000    0.323350000000005    0.323350000000005  0.0000
  O      O         0.176649999999995    0.000000000000000    0.323350000000005  0.0000
  O      O         0.000000000000000    0.176649999999995    0.323350000000005  0.0000
  O      O         0.176649999999995    0.323350000000005    0.000000000000000  0.0000
  O      O         0.176649999999995    0.176649999999995    0.000000000000000  0.0000
  O      O         0.323350000000005    0.176649999999995    0.000000000000000  0.0000
  O      O         0.323350000000005    0.323350000000005    0.000000000000000  0.0000
  O      O         0.073350000000005    0.250000000000000    0.926649999999995  0.0000
  Si     Si        0.125000000000000    0.250000000000000    0.500000000000000  0.0000
  O      O         0.250000000000000    0.073350000000005    0.926649999999995  0.0000
  Si     Si        0.250000000000000    0.125000000000000    0.500000000000000  0.0000
  O      O         0.426649999999995    0.250000000000000    0.926649999999995  0.0000
  Si     Si        0.375000000000000    0.250000000000000    0.500000000000000  0.0000
  O      O         0.250000000000000    0.426649999999995    0.926649999999995  0.0000
  Si     Si        0.250000000000000    0.375000000000000    0.500000000000000  0.0000
  O      O         0.073350000000005    0.250000000000000    0.573350000000005  0.0000
  O      O         0.250000000000000    0.073350000000005    0.573350000000005  0.0000
  O      O         0.426649999999995    0.250000000000000    0.573350000000005  0.0000
  O      O         0.250000000000000    0.426649999999995    0.573350000000005  0.0000
  O      O         0.426649999999995    0.073350000000005    0.750000000000000  0.0000
  Si     Si        0.000000000000000    0.125000000000000    0.750000000000000  0.0000
  O      O         0.426649999999995    0.426649999999995    0.750000000000000  0.0000
  Si     Si        0.375000000000000    0.000000000000000    0.750000000000000  0.0000
  O      O         0.073350000000005    0.426649999999995    0.750000000000000  0.0000
  Si     Si        0.000000000000000    0.375000000000000    0.750000000000000  0.0000
  O      O         0.073350000000005    0.073350000000005    0.750000000000000  0.0000
  Si     Si        0.125000000000000    0.000000000000000    0.750000000000000  0.0000
  Si     Si        0.250000000000000    0.000000000000000    0.625000000000000  0.0000
  Si     Si        0.250000000000000    0.000000000000000    0.875000000000000  0.0000
  Si     Si        0.000000000000000    0.250000000000000    0.875000000000000  0.0000
  Si     Si        0.000000000000000    0.250000000000000    0.625000000000000  0.0000
  O      O         0.323350000000005    0.000000000000000    0.676649999999995  0.0000
  O      O         0.000000000000000    0.323350000000005    0.676649999999995  0.0000
  O      O         0.176649999999995    0.000000000000000    0.676649999999995  0.0000
  O      O         0.000000000000000    0.176649999999995    0.676649999999995  0.0000
  O      O         0.323350000000005    0.000000000000000    0.823350000000005  0.0000
  O      O         0.000000000000000    0.323350000000005    0.823350000000005  0.0000
  O      O         0.176649999999995    0.000000000000000    0.823350000000005  0.0000
  O      O         0.000000000000000    0.176649999999995    0.823350000000005  0.0000
  O      O         0.176649999999995    0.323350000000005    0.500000000000000  0.0000
  O      O         0.176649999999995    0.176649999999995    0.500000000000000  0.0000
  O      O         0.323350000000005    0.176649999999995    0.500000000000000  0.0000
  O      O         0.323350000000005    0.323350000000005    0.500000000000000  0.0000
  O      O         0.073350000000005    0.750000000000000    0.426649999999995  0.0000
  Si     Si        0.125000000000000    0.750000000000000    0.000000000000000  0.0000
  O      O         0.250000000000000    0.573350000000005    0.426649999999995  0.0000
  Si     Si        0.250000000000000    0.625000000000000    0.000000000000000  0.0000
  O      O         0.426649999999995    0.750000000000000    0.426649999999995  0.0000
  Si     Si        0.375000000000000    0.750000000000000    0.000000000000000  0.0000
  O      O         0.250000000000000    0.926649999999995    0.426649999999995  0.0000
  Si     Si        0.250000000000000    0.875000000000000    0.000000000000000  0.0000
  O      O         0.073350000000005    0.750000000000000    0.073350000000005  0.0000
  O      O         0.250000000000000    0.573350000000005    0.073350000000005  0.0000
  O      O         0.426649999999995    0.750000000000000    0.073350000000005  0.0000
  O      O         0.250000000000000    0.926649999999995    0.073350000000005  0.0000
  O      O         0.426649999999995    0.573350000000005    0.250000000000000  0.0000
  Si     Si        0.000000000000000    0.625000000000000    0.250000000000000  0.0000
  O      O         0.426649999999995    0.926649999999995    0.250000000000000  0.0000
  Si     Si        0.375000000000000    0.500000000000000    0.250000000000000  0.0000
  O      O         0.073350000000005    0.926649999999995    0.250000000000000  0.0000
  Si     Si        0.000000000000000    0.875000000000000    0.250000000000000  0.0000
  O      O         0.073350000000005    0.573350000000005    0.250000000000000  0.0000
  Si     Si        0.125000000000000    0.500000000000000    0.250000000000000  0.0000
  Si     Si        0.250000000000000    0.500000000000000    0.125000000000000  0.0000
  Si     Si        0.250000000000000    0.500000000000000    0.375000000000000  0.0000
  Si     Si        0.000000000000000    0.750000000000000    0.375000000000000  0.0000
  Si     Si        0.000000000000000    0.750000000000000    0.125000000000000  0.0000
  O      O         0.323350000000005    0.500000000000000    0.176649999999995  0.0000
  O      O         0.000000000000000    0.823350000000005    0.176649999999995  0.0000
  O      O         0.176649999999995    0.500000000000000    0.176649999999995  0.0000
  O      O         0.000000000000000    0.676649999999995    0.176649999999995  0.0000
  O      O         0.323350000000005    0.500000000000000    0.323350000000005  0.0000
  O      O         0.000000000000000    0.823350000000005    0.323350000000005  0.0000
  O      O         0.176649999999995    0.500000000000000    0.323350000000005  0.0000
  O      O         0.000000000000000    0.676649999999995    0.323350000000005  0.0000
  O      O         0.176649999999995    0.823350000000005    0.000000000000000  0.0000
  O      O         0.176649999999995    0.676649999999995    0.000000000000000  0.0000
  O      O         0.323350000000005    0.676649999999995    0.000000000000000  0.0000
  O      O         0.323350000000005    0.823350000000005    0.000000000000000  0.0000
  O      O         0.073350000000005    0.750000000000000    0.926649999999995  0.0000
  Si     Si        0.125000000000000    0.750000000000000    0.500000000000000  0.0000
  O      O         0.250000000000000    0.573350000000005    0.926649999999995  0.0000
  Si     Si        0.250000000000000    0.625000000000000    0.500000000000000  0.0000
  O      O         0.426649999999995    0.750000000000000    0.926649999999995  0.0000
  Si     Si        0.375000000000000    0.750000000000000    0.500000000000000  0.0000
  O      O         0.250000000000000    0.926649999999995    0.926649999999995  0.0000
  Si     Si        0.250000000000000    0.875000000000000    0.500000000000000  0.0000
  O      O         0.073350000000005    0.750000000000000    0.573350000000005  0.0000
  O      O         0.250000000000000    0.573350000000005    0.573350000000005  0.0000
  O      O         0.426649999999995    0.750000000000000    0.573350000000005  0.0000
  O      O         0.250000000000000    0.926649999999995    0.573350000000005  0.0000
  O      O         0.426649999999995    0.573350000000005    0.750000000000000  0.0000
  Si     Si        0.000000000000000    0.625000000000000    0.750000000000000  0.0000
  O      O         0.426649999999995    0.926649999999995    0.750000000000000  0.0000
  Si     Si        0.375000000000000    0.500000000000000    0.750000000000000  0.0000
  O      O         0.073350000000005    0.926649999999995    0.750000000000000  0.0000
  Si     Si        0.000000000000000    0.875000000000000    0.750000000000000  0.0000
  O      O         0.073350000000005    0.573350000000005    0.750000000000000  0.0000
  Si     Si        0.125000000000000    0.500000000000000    0.750000000000000  0.0000
  Si     Si        0.250000000000000    0.500000000000000    0.625000000000000  0.0000
  Si     Si        0.250000000000000    0.500000000000000    0.875000000000000  0.0000
  Si     Si        0.000000000000000    0.750000000000000    0.875000000000000  0.0000
  Si     Si        0.000000000000000    0.750000000000000    0.625000000000000  0.0000
  O      O         0.323350000000005    0.500000000000000    0.676649999999995  0.0000
  O      O         0.000000000000000    0.823350000000005    0.676649999999995  0.0000
  O      O         0.176649999999995    0.500000000000000    0.676649999999995  0.0000
  O      O         0.000000000000000    0.676649999999995    0.676649999999995  0.0000
  O      O         0.323350000000005    0.500000000000000    0.823350000000005  0.0000
  O      O         0.000000000000000    0.823350000000005    0.823350000000005  0.0000
  O      O         0.176649999999995    0.500000000000000    0.823350000000005  0.0000
  O      O         0.000000000000000    0.676649999999995    0.823350000000005  0.0000
  O      O         0.176649999999995    0.823350000000005    0.500000000000000  0.0000
  O      O         0.176649999999995    0.676649999999995    0.500000000000000  0.0000
  O      O         0.323350000000005    0.676649999999995    0.500000000000000  0.0000
  O      O         0.323350000000005    0.823350000000005    0.500000000000000  0.0000
  O      O         0.573350000000005    0.250000000000000    0.426649999999995  0.0000
  Si     Si        0.625000000000000    0.250000000000000    0.000000000000000  0.0000
  O      O         0.750000000000000    0.073350000000005    0.426649999999995  0.0000
  Si     Si        0.750000000000000    0.125000000000000    0.000000000000000  0.0000
  O      O         0.926649999999995    0.250000000000000    0.426649999999995  0.0000
  Si     Si        0.875000000000000    0.250000000000000    0.000000000000000  0.0000
  O      O         0.750000000000000    0.426649999999995    0.426649999999995  0.0000
  Si     Si        0.750000000000000    0.375000000000000    0.000000000000000  0.0000
  O      O         0.573350000000005    0.250000000000000    0.073350000000005  0.0000
  O      O         0.750000000000000    0.073350000000005    0.073350000000005  0.0000
  O      O         0.926649999999995    0.250000000000000    0.073350000000005  0.0000
  O      O         0.750000000000000    0.426649999999995    0.073350000000005  0.0000
  O      O         0.926649999999995    0.073350000000005    0.250000000000000  0.0000
  Si     Si        0.500000000000000    0.125000000000000    0.250000000000000  0.0000
  O      O         0.926649999999995    0.426649999999995    0.250000000000000  0.0000
  Si     Si        0.875000000000000    0.000000000000000    0.250000000000000  0.0000
  O      O         0.573350000000005    0.426649999999995    0.250000000000000  0.0000
  Si     Si        0.500000000000000    0.375000000000000    0.250000000000000  0.0000
  O      O         0.573350000000005    0.073350000000005    0.250000000000000  0.0000
  Si     Si        0.625000000000000    0.000000000000000    0.250000000000000  0.0000
  Si     Si        0.750000000000000    0.000000000000000    0.125000000000000  0.0000
  Si     Si        0.750000000000000    0.000000000000000    0.375000000000000  0.0000
  Si     Si        0.500000000000000    0.250000000000000    0.375000000000000  0.0000
  Si     Si        0.500000000000000    0.250000000000000    0.125000000000000  0.0000
  O      O         0.823350000000005    0.000000000000000    0.176649999999995  0.0000
  O      O         0.500000000000000    0.323350000000005    0.176649999999995  0.0000
  O      O         0.676649999999995    0.000000000000000    0.176649999999995  0.0000
  O      O         0.500000000000000    0.176649999999995    0.176649999999995  0.0000
  O      O         0.823350000000005    0.000000000000000    0.323350000000005  0.0000
  O      O         0.500000000000000    0.323350000000005    0.323350000000005  0.0000
  O      O         0.676649999999995    0.000000000000000    0.323350000000005  0.0000
  O      O         0.500000000000000    0.176649999999995    0.323350000000005  0.0000
  O      O         0.676649999999995    0.323350000000005    0.000000000000000  0.0000
  O      O         0.676649999999995    0.176649999999995    0.000000000000000  0.0000
  O      O         0.823350000000005    0.176649999999995    0.000000000000000  0.0000
  O      O         0.823350000000005    0.323350000000005    0.000000000000000  0.0000
  O      O         0.573350000000005    0.250000000000000    0.926649999999995  0.0000
  Si     Si        0.625000000000000    0.250000000000000    0.500000000000000  0.0000
  O      O         0.750000000000000    0.073350000000005    0.926649999999995  0.0000
  Si     Si        0.750000000000000    0.125000000000000    0.500000000000000  0.0000
  O      O         0.926649999999995    0.250000000000000    0.926649999999995  0.0000
  Si     Si        0.875000000000000    0.250000000000000    0.500000000000000  0.0000
  O      O         0.750000000000000    0.426649999999995    0.926649999999995  0.0000
  Si     Si        0.750000000000000    0.375000000000000    0.500000000000000  0.0000
  O      O         0.573350000000005    0.250000000000000    0.573350000000005  0.0000
  O      O         0.750000000000000    0.073350000000005    0.573350000000005  0.0000
  O      O         0.926649999999995    0.250000000000000    0.573350000000005  0.0000
  O      O         0.750000000000000    0.426649999999995    0.573350000000005  0.0000
  O      O         0.926649999999995    0.073350000000005    0.750000000000000  0.0000
  Si     Si        0.500000000000000    0.125000000000000    0.750000000000000  0.0000
  O      O         0.926649999999995    0.426649999999995    0.750000000000000  0.0000
  Si     Si        0.875000000000000    0.000000000000000    0.750000000000000  0.0000
  O      O         0.573350000000005    0.426649999999995    0.750000000000000  0.0000
  Si     Si        0.500000000000000    0.375000000000000    0.750000000000000  0.0000
  O      O         0.573350000000005    0.073350000000005    0.750000000000000  0.0000
  Si     Si        0.625000000000000    0.000000000000000    0.750000000000000  0.0000
  Si     Si        0.750000000000000    0.000000000000000    0.625000000000000  0.0000
  Si     Si        0.750000000000000    0.000000000000000    0.875000000000000  0.0000
  Si     Si        0.500000000000000    0.250000000000000    0.875000000000000  0.0000
  Si     Si        0.500000000000000    0.250000000000000    0.625000000000000  0.0000
  O      O         0.823350000000005    0.000000000000000    0.676649999999995  0.0000
  O      O         0.500000000000000    0.323350000000005    0.676649999999995  0.0000
  O      O         0.676649999999995    0.000000000000000    0.676649999999995  0.0000
  O      O         0.500000000000000    0.176649999999995    0.676649999999995  0.0000
  O      O         0.823350000000005    0.000000000000000    0.823350000000005  0.0000
  O      O         0.500000000000000    0.323350000000005    0.823350000000005  0.0000
  O      O         0.676649999999995    0.000000000000000    0.823350000000005  0.0000
  O      O         0.500000000000000    0.176649999999995    0.823350000000005  0.0000
  O      O         0.676649999999995    0.323350000000005    0.500000000000000  0.0000
  O      O         0.676649999999995    0.176649999999995    0.500000000000000  0.0000
  O      O         0.823350000000005    0.176649999999995    0.500000000000000  0.0000
  O      O         0.823350000000005    0.323350000000005    0.500000000000000  0.0000
  O      O         0.573350000000005    0.750000000000000    0.426649999999995  0.0000
  Si     Si        0.625000000000000    0.750000000000000    0.000000000000000  0.0000
  O      O         0.750000000000000    0.573350000000005    0.426649999999995  0.0000
  Si     Si        0.750000000000000    0.625000000000000    0.000000000000000  0.0000
  O      O         0.926649999999995    0.750000000000000    0.426649999999995  0.0000
  Si     Si        0.875000000000000    0.750000000000000    0.000000000000000  0.0000
  O      O         0.750000000000000    0.926649999999995    0.426649999999995  0.0000
  Si     Si        0.750000000000000    0.875000000000000    0.000000000000000  0.0000
  O      O         0.573350000000005    0.750000000000000    0.073350000000005  0.0000
  O      O         0.750000000000000    0.573350000000005    0.073350000000005  0.0000
  O      O         0.926649999999995    0.750000000000000    0.073350000000005  0.0000
  O      O         0.750000000000000    0.926649999999995    0.073350000000005  0.0000
  O      O         0.926649999999995    0.573350000000005    0.250000000000000  0.0000
  Si     Si        0.500000000000000    0.625000000000000    0.250000000000000  0.0000
  O      O         0.926649999999995    0.926649999999995    0.250000000000000  0.0000
  Si     Si        0.875000000000000    0.500000000000000    0.250000000000000  0.0000
  O      O         0.573350000000005    0.926649999999995    0.250000000000000  0.0000
  Si     Si        0.500000000000000    0.875000000000000    0.250000000000000  0.0000
  O      O         0.573350000000005    0.573350000000005    0.250000000000000  0.0000
  Si     Si        0.625000000000000    0.500000000000000    0.250000000000000  0.0000
  Si     Si        0.750000000000000    0.500000000000000    0.125000000000000  0.0000
  Si     Si        0.750000000000000    0.500000000000000    0.375000000000000  0.0000
  Si     Si        0.500000000000000    0.750000000000000    0.375000000000000  0.0000
  Si     Si        0.500000000000000    0.750000000000000    0.125000000000000  0.0000
  O      O         0.823350000000005    0.500000000000000    0.176649999999995  0.0000
  O      O         0.500000000000000    0.823350000000005    0.176649999999995  0.0000
  O      O         0.676649999999995    0.500000000000000    0.176649999999995  0.0000
  O      O         0.500000000000000    0.676649999999995    0.176649999999995  0.0000
  O      O         0.823350000000005    0.500000000000000    0.323350000000005  0.0000
  O      O         0.500000000000000    0.823350000000005    0.323350000000005  0.0000
  O      O         0.676649999999995    0.500000000000000    0.323350000000005  0.0000
  O      O         0.500000000000000    0.676649999999995    0.323350000000005  0.0000
  O      O         0.676649999999995    0.823350000000005    0.000000000000000  0.0000
  O      O         0.676649999999995    0.676649999999995    0.000000000000000  0.0000
  O      O         0.823350000000005    0.676649999999995    0.000000000000000  0.0000
  O      O         0.823350000000005    0.823350000000005    0.000000000000000  0.0000
  O      O         0.573350000000005    0.750000000000000    0.926649999999995  0.0000
  Si     Si        0.625000000000000    0.750000000000000    0.500000000000000  0.0000
  O      O         0.750000000000000    0.573350000000005    0.926649999999995  0.0000
  Si     Si        0.750000000000000    0.625000000000000    0.500000000000000  0.0000
  O      O         0.926649999999995    0.750000000000000    0.926649999999995  0.0000
  Si     Si        0.875000000000000    0.750000000000000    0.500000000000000  0.0000
  O      O         0.750000000000000    0.926649999999995    0.926649999999995  0.0000
  Si     Si        0.750000000000000    0.875000000000000    0.500000000000000  0.0000
  O      O         0.573350000000005    0.750000000000000    0.573350000000005  0.0000
  O      O         0.750000000000000    0.573350000000005    0.573350000000005  0.0000
  O      O         0.926649999999995    0.750000000000000    0.573350000000005  0.0000
  O      O         0.750000000000000    0.926649999999995    0.573350000000005  0.0000
  O      O         0.926649999999995    0.573350000000005    0.750000000000000  0.0000
  Si     Si        0.500000000000000    0.625000000000000    0.750000000000000  0.0000
  O      O         0.926649999999995    0.926649999999995    0.750000000000000  0.0000
  Si     Si        0.875000000000000    0.500000000000000    0.750000000000000  0.0000
  O      O         0.573350000000005    0.926649999999995    0.750000000000000  0.0000
  Si     Si        0.500000000000000    0.875000000000000    0.750000000000000  0.0000
  O      O         0.573350000000005    0.573350000000005    0.750000000000000  0.0000
  Si     Si        0.625000000000000    0.500000000000000    0.750000000000000  0.0000
  Si     Si        0.750000000000000    0.500000000000000    0.625000000000000  0.0000
  Si     Si        0.750000000000000    0.500000000000000    0.875000000000000  0.0000
  Si     Si        0.500000000000000    0.750000000000000    0.875000000000000  0.0000
  Si     Si        0.500000000000000    0.750000000000000    0.625000000000000  0.0000
  O      O         0.823350000000005    0.500000000000000    0.676649999999995  0.0000
  O      O         0.500000000000000    0.823350000000005    0.676649999999995  0.0000
  O      O         0.676649999999995    0.500000000000000    0.676649999999995  0.0000
  O      O         0.500000000000000    0.676649999999995    0.676649999999995  0.0000
  O      O         0.823350000000005    0.500000000000000    0.823350000000005  0.0000
  O      O         0.500000000000000    0.823350000000005    0.823350000000005  0.0000
  O      O         0.676649999999995    0.500000000000000    0.823350000000005  0.0000
  O      O         0.500000000000000    0.676649999999995    0.823350000000005  0.0000
  O      O         0.676649999999995    0.823350000000005    0.500000000000000  0.0000
  O      O         0.676649999999995    0.676649999999995    0.500000000000000  0.0000
  O      O         0.823350000000005    0.676649999999995    0.500000000000000  0.0000
  O      O         0.823350000000005    0.823350000000005    0.500000000000000  0.0000
