data_SOD

_audit_creation_method RASPA-1.0
_audit_creation_date 2024-2-5
_audit_author_name 'Salvador Rodríguez Gómez'

_cell_length_a    17.93
_cell_length_b    17.93
_cell_length_c    17.93
_cell_angle_alpha 90
_cell_angle_beta  90
_cell_angle_gamma 90
_cell_volume      5764.22

_symmetry_cell_setting          triclinic
_symmetry_space_group_name_Hall 'P 1'
_symmetry_space_group_name_H-M  'P 1'
_symmetry_Int_Tables_number     1

_symmetry_equiv_pos_as_xyz 'x,y,z'

loop_
_atom_site_label
_atom_site_type_symbol
_atom_site_fract_x
_atom_site_fract_y
_atom_site_fract_z
_atom_site_charge
O        O      0.073350000000     0.250000000000     0.426650000000     0          
Si       Si     0.125000000000     0.250000000000     0.000000000000     0          
O        O      0.250000000000     0.073350000000     0.426650000000     0          
Si       Si     0.250000000000     0.125000000000     0.000000000000     0          
O        O      0.426650000000     0.250000000000     0.426650000000     0          
Si       Si     0.375000000000     0.250000000000     0.000000000000     0          
O        O      0.250000000000     0.426650000000     0.426650000000     0          
Si       Si     0.250000000000     0.375000000000     0.000000000000     0          
O        O      0.073350000000     0.250000000000     0.073350000000     0          
O        O      0.250000000000     0.073350000000     0.073350000000     0          
O        O      0.426650000000     0.250000000000     0.073350000000     0          
O        O      0.250000000000     0.426650000000     0.073350000000     0          
O        O      0.426650000000     0.073350000000     0.250000000000     0          
Si       Si     0.000000000000     0.125000000000     0.250000000000     0          
O        O      0.426650000000     0.426650000000     0.250000000000     0          
Si       Si     0.375000000000     0.000000000000     0.250000000000     0          
O        O      0.073350000000     0.426650000000     0.250000000000     0          
Si       Si     0.000000000000     0.375000000000     0.250000000000     0          
O        O      0.073350000000     0.073350000000     0.250000000000     0          
Si       Si     0.125000000000     0.000000000000     0.250000000000     0          
Si       Si     0.250000000000     0.000000000000     0.125000000000     0          
Si       Si     0.250000000000     0.000000000000     0.375000000000     0          
Si       Si     0.000000000000     0.250000000000     0.375000000000     0          
Si       Si     0.000000000000     0.250000000000     0.125000000000     0          
O        O      0.323350000000     0.000000000000     0.176650000000     0          
O        O      0.000000000000     0.323350000000     0.176650000000     0          
O        O      0.176650000000     0.000000000000     0.176650000000     0          
O        O      0.000000000000     0.176650000000     0.176650000000     0          
O        O      0.323350000000     0.000000000000     0.323350000000     0          
O        O      0.000000000000     0.323350000000     0.323350000000     0          
O        O      0.176650000000     0.000000000000     0.323350000000     0          
O        O      0.000000000000     0.176650000000     0.323350000000     0          
O        O      0.176650000000     0.323350000000     0.000000000000     0          
O        O      0.176650000000     0.176650000000     0.000000000000     0          
O        O      0.323350000000     0.176650000000     0.000000000000     0          
O        O      0.323350000000     0.323350000000     0.000000000000     0          
O        O      0.073350000000     0.250000000000     0.926650000000     0          
Si       Si     0.125000000000     0.250000000000     0.500000000000     0          
O        O      0.250000000000     0.073350000000     0.926650000000     0          
Si       Si     0.250000000000     0.125000000000     0.500000000000     0          
O        O      0.426650000000     0.250000000000     0.926650000000     0          
Si       Si     0.375000000000     0.250000000000     0.500000000000     0          
O        O      0.250000000000     0.426650000000     0.926650000000     0          
Si       Si     0.250000000000     0.375000000000     0.500000000000     0          
O        O      0.073350000000     0.250000000000     0.573350000000     0          
O        O      0.250000000000     0.073350000000     0.573350000000     0          
O        O      0.426650000000     0.250000000000     0.573350000000     0          
O        O      0.250000000000     0.426650000000     0.573350000000     0          
O        O      0.426650000000     0.073350000000     0.750000000000     0          
Si       Si     0.000000000000     0.125000000000     0.750000000000     0          
O        O      0.426650000000     0.426650000000     0.750000000000     0          
Si       Si     0.375000000000     0.000000000000     0.750000000000     0          
O        O      0.073350000000     0.426650000000     0.750000000000     0          
Si       Si     0.000000000000     0.375000000000     0.750000000000     0          
O        O      0.073350000000     0.073350000000     0.750000000000     0          
Si       Si     0.125000000000     0.000000000000     0.750000000000     0          
Si       Si     0.250000000000     0.000000000000     0.625000000000     0          
Si       Si     0.250000000000     0.000000000000     0.875000000000     0          
Si       Si     0.000000000000     0.250000000000     0.875000000000     0          
Si       Si     0.000000000000     0.250000000000     0.625000000000     0          
O        O      0.323350000000     0.000000000000     0.676650000000     0          
O        O      0.000000000000     0.323350000000     0.676650000000     0          
O        O      0.176650000000     0.000000000000     0.676650000000     0          
O        O      0.000000000000     0.176650000000     0.676650000000     0          
O        O      0.323350000000     0.000000000000     0.823350000000     0          
O        O      0.000000000000     0.323350000000     0.823350000000     0          
O        O      0.176650000000     0.000000000000     0.823350000000     0          
O        O      0.000000000000     0.176650000000     0.823350000000     0          
O        O      0.176650000000     0.323350000000     0.500000000000     0          
O        O      0.176650000000     0.176650000000     0.500000000000     0          
O        O      0.323350000000     0.176650000000     0.500000000000     0          
O        O      0.323350000000     0.323350000000     0.500000000000     0          
O        O      0.073350000000     0.750000000000     0.426650000000     0          
Si       Si     0.125000000000     0.750000000000     0.000000000000     0          
O        O      0.250000000000     0.573350000000     0.426650000000     0          
Si       Si     0.250000000000     0.625000000000     0.000000000000     0          
O        O      0.426650000000     0.750000000000     0.426650000000     0          
Si       Si     0.375000000000     0.750000000000     0.000000000000     0          
O        O      0.250000000000     0.926650000000     0.426650000000     0          
Si       Si     0.250000000000     0.875000000000     0.000000000000     0          
O        O      0.073350000000     0.750000000000     0.073350000000     0          
O        O      0.250000000000     0.573350000000     0.073350000000     0          
O        O      0.426650000000     0.750000000000     0.073350000000     0          
O        O      0.250000000000     0.926650000000     0.073350000000     0          
O        O      0.426650000000     0.573350000000     0.250000000000     0          
Si       Si     0.000000000000     0.625000000000     0.250000000000     0          
O        O      0.426650000000     0.926650000000     0.250000000000     0          
Si       Si     0.375000000000     0.500000000000     0.250000000000     0          
O        O      0.073350000000     0.926650000000     0.250000000000     0          
Si       Si     0.000000000000     0.875000000000     0.250000000000     0          
O        O      0.073350000000     0.573350000000     0.250000000000     0          
Si       Si     0.125000000000     0.500000000000     0.250000000000     0          
Si       Si     0.250000000000     0.500000000000     0.125000000000     0          
Si       Si     0.250000000000     0.500000000000     0.375000000000     0          
Si       Si     0.000000000000     0.750000000000     0.375000000000     0          
Si       Si     0.000000000000     0.750000000000     0.125000000000     0          
O        O      0.323350000000     0.500000000000     0.176650000000     0          
O        O      0.000000000000     0.823350000000     0.176650000000     0          
O        O      0.176650000000     0.500000000000     0.176650000000     0          
O        O      0.000000000000     0.676650000000     0.176650000000     0          
O        O      0.323350000000     0.500000000000     0.323350000000     0          
O        O      0.000000000000     0.823350000000     0.323350000000     0          
O        O      0.176650000000     0.500000000000     0.323350000000     0          
O        O      0.000000000000     0.676650000000     0.323350000000     0          
O        O      0.176650000000     0.823350000000     0.000000000000     0          
O        O      0.176650000000     0.676650000000     0.000000000000     0          
O        O      0.323350000000     0.676650000000     0.000000000000     0          
O        O      0.323350000000     0.823350000000     0.000000000000     0          
O        O      0.073350000000     0.750000000000     0.926650000000     0          
Si       Si     0.125000000000     0.750000000000     0.500000000000     0          
O        O      0.250000000000     0.573350000000     0.926650000000     0          
Si       Si     0.250000000000     0.625000000000     0.500000000000     0          
O        O      0.426650000000     0.750000000000     0.926650000000     0          
Si       Si     0.375000000000     0.750000000000     0.500000000000     0          
O        O      0.250000000000     0.926650000000     0.926650000000     0          
Si       Si     0.250000000000     0.875000000000     0.500000000000     0          
O        O      0.073350000000     0.750000000000     0.573350000000     0          
O        O      0.250000000000     0.573350000000     0.573350000000     0          
O        O      0.426650000000     0.750000000000     0.573350000000     0          
O        O      0.250000000000     0.926650000000     0.573350000000     0          
O        O      0.426650000000     0.573350000000     0.750000000000     0          
Si       Si     0.000000000000     0.625000000000     0.750000000000     0          
O        O      0.426650000000     0.926650000000     0.750000000000     0          
Si       Si     0.375000000000     0.500000000000     0.750000000000     0          
O        O      0.073350000000     0.926650000000     0.750000000000     0          
Si       Si     0.000000000000     0.875000000000     0.750000000000     0          
O        O      0.073350000000     0.573350000000     0.750000000000     0          
Si       Si     0.125000000000     0.500000000000     0.750000000000     0          
Si       Si     0.250000000000     0.500000000000     0.625000000000     0          
Si       Si     0.250000000000     0.500000000000     0.875000000000     0          
Si       Si     0.000000000000     0.750000000000     0.875000000000     0          
Si       Si     0.000000000000     0.750000000000     0.625000000000     0          
O        O      0.323350000000     0.500000000000     0.676650000000     0          
O        O      0.000000000000     0.823350000000     0.676650000000     0          
O        O      0.176650000000     0.500000000000     0.676650000000     0          
O        O      0.000000000000     0.676650000000     0.676650000000     0          
O        O      0.323350000000     0.500000000000     0.823350000000     0          
O        O      0.000000000000     0.823350000000     0.823350000000     0          
O        O      0.176650000000     0.500000000000     0.823350000000     0          
O        O      0.000000000000     0.676650000000     0.823350000000     0          
O        O      0.176650000000     0.823350000000     0.500000000000     0          
O        O      0.176650000000     0.676650000000     0.500000000000     0          
O        O      0.323350000000     0.676650000000     0.500000000000     0          
O        O      0.323350000000     0.823350000000     0.500000000000     0          
O        O      0.573350000000     0.250000000000     0.426650000000     0          
Si       Si     0.625000000000     0.250000000000     0.000000000000     0          
O        O      0.750000000000     0.073350000000     0.426650000000     0          
Si       Si     0.750000000000     0.125000000000     0.000000000000     0          
O        O      0.926650000000     0.250000000000     0.426650000000     0          
Si       Si     0.875000000000     0.250000000000     0.000000000000     0          
O        O      0.750000000000     0.426650000000     0.426650000000     0          
Si       Si     0.750000000000     0.375000000000     0.000000000000     0          
O        O      0.573350000000     0.250000000000     0.073350000000     0          
O        O      0.750000000000     0.073350000000     0.073350000000     0          
O        O      0.926650000000     0.250000000000     0.073350000000     0          
O        O      0.750000000000     0.426650000000     0.073350000000     0          
O        O      0.926650000000     0.073350000000     0.250000000000     0          
Si       Si     0.500000000000     0.125000000000     0.250000000000     0          
O        O      0.926650000000     0.426650000000     0.250000000000     0          
Si       Si     0.875000000000     0.000000000000     0.250000000000     0          
O        O      0.573350000000     0.426650000000     0.250000000000     0          
Si       Si     0.500000000000     0.375000000000     0.250000000000     0          
O        O      0.573350000000     0.073350000000     0.250000000000     0          
Si       Si     0.625000000000     0.000000000000     0.250000000000     0          
Si       Si     0.750000000000     0.000000000000     0.125000000000     0          
Si       Si     0.750000000000     0.000000000000     0.375000000000     0          
Si       Si     0.500000000000     0.250000000000     0.375000000000     0          
Si       Si     0.500000000000     0.250000000000     0.125000000000     0          
O        O      0.823350000000     0.000000000000     0.176650000000     0          
O        O      0.500000000000     0.323350000000     0.176650000000     0          
O        O      0.676650000000     0.000000000000     0.176650000000     0          
O        O      0.500000000000     0.176650000000     0.176650000000     0          
O        O      0.823350000000     0.000000000000     0.323350000000     0          
O        O      0.500000000000     0.323350000000     0.323350000000     0          
O        O      0.676650000000     0.000000000000     0.323350000000     0          
O        O      0.500000000000     0.176650000000     0.323350000000     0          
O        O      0.676650000000     0.323350000000     0.000000000000     0          
O        O      0.676650000000     0.176650000000     0.000000000000     0          
O        O      0.823350000000     0.176650000000     0.000000000000     0          
O        O      0.823350000000     0.323350000000     0.000000000000     0          
O        O      0.573350000000     0.250000000000     0.926650000000     0          
Si       Si     0.625000000000     0.250000000000     0.500000000000     0          
O        O      0.750000000000     0.073350000000     0.926650000000     0          
Si       Si     0.750000000000     0.125000000000     0.500000000000     0          
O        O      0.926650000000     0.250000000000     0.926650000000     0          
Si       Si     0.875000000000     0.250000000000     0.500000000000     0          
O        O      0.750000000000     0.426650000000     0.926650000000     0          
Si       Si     0.750000000000     0.375000000000     0.500000000000     0          
O        O      0.573350000000     0.250000000000     0.573350000000     0          
O        O      0.750000000000     0.073350000000     0.573350000000     0          
O        O      0.926650000000     0.250000000000     0.573350000000     0          
O        O      0.750000000000     0.426650000000     0.573350000000     0          
O        O      0.926650000000     0.073350000000     0.750000000000     0          
Si       Si     0.500000000000     0.125000000000     0.750000000000     0          
O        O      0.926650000000     0.426650000000     0.750000000000     0          
Si       Si     0.875000000000     0.000000000000     0.750000000000     0          
O        O      0.573350000000     0.426650000000     0.750000000000     0          
Si       Si     0.500000000000     0.375000000000     0.750000000000     0          
O        O      0.573350000000     0.073350000000     0.750000000000     0          
Si       Si     0.625000000000     0.000000000000     0.750000000000     0          
Si       Si     0.750000000000     0.000000000000     0.625000000000     0          
Si       Si     0.750000000000     0.000000000000     0.875000000000     0          
Si       Si     0.500000000000     0.250000000000     0.875000000000     0          
Si       Si     0.500000000000     0.250000000000     0.625000000000     0          
O        O      0.823350000000     0.000000000000     0.676650000000     0          
O        O      0.500000000000     0.323350000000     0.676650000000     0          
O        O      0.676650000000     0.000000000000     0.676650000000     0          
O        O      0.500000000000     0.176650000000     0.676650000000     0          
O        O      0.823350000000     0.000000000000     0.823350000000     0          
O        O      0.500000000000     0.323350000000     0.823350000000     0          
O        O      0.676650000000     0.000000000000     0.823350000000     0          
O        O      0.500000000000     0.176650000000     0.823350000000     0          
O        O      0.676650000000     0.323350000000     0.500000000000     0          
O        O      0.676650000000     0.176650000000     0.500000000000     0          
O        O      0.823350000000     0.176650000000     0.500000000000     0          
O        O      0.823350000000     0.323350000000     0.500000000000     0          
O        O      0.573350000000     0.750000000000     0.426650000000     0          
Si       Si     0.625000000000     0.750000000000     0.000000000000     0          
O        O      0.750000000000     0.573350000000     0.426650000000     0          
Si       Si     0.750000000000     0.625000000000     0.000000000000     0          
O        O      0.926650000000     0.750000000000     0.426650000000     0          
Si       Si     0.875000000000     0.750000000000     0.000000000000     0          
O        O      0.750000000000     0.926650000000     0.426650000000     0          
Si       Si     0.750000000000     0.875000000000     0.000000000000     0          
O        O      0.573350000000     0.750000000000     0.073350000000     0          
O        O      0.750000000000     0.573350000000     0.073350000000     0          
O        O      0.926650000000     0.750000000000     0.073350000000     0          
O        O      0.750000000000     0.926650000000     0.073350000000     0          
O        O      0.926650000000     0.573350000000     0.250000000000     0          
Si       Si     0.500000000000     0.625000000000     0.250000000000     0          
O        O      0.926650000000     0.926650000000     0.250000000000     0          
Si       Si     0.875000000000     0.500000000000     0.250000000000     0          
O        O      0.573350000000     0.926650000000     0.250000000000     0          
Si       Si     0.500000000000     0.875000000000     0.250000000000     0          
O        O      0.573350000000     0.573350000000     0.250000000000     0          
Si       Si     0.625000000000     0.500000000000     0.250000000000     0          
Si       Si     0.750000000000     0.500000000000     0.125000000000     0          
Si       Si     0.750000000000     0.500000000000     0.375000000000     0          
Si       Si     0.500000000000     0.750000000000     0.375000000000     0          
Si       Si     0.500000000000     0.750000000000     0.125000000000     0          
O        O      0.823350000000     0.500000000000     0.176650000000     0          
O        O      0.500000000000     0.823350000000     0.176650000000     0          
O        O      0.676650000000     0.500000000000     0.176650000000     0          
O        O      0.500000000000     0.676650000000     0.176650000000     0          
O        O      0.823350000000     0.500000000000     0.323350000000     0          
O        O      0.500000000000     0.823350000000     0.323350000000     0          
O        O      0.676650000000     0.500000000000     0.323350000000     0          
O        O      0.500000000000     0.676650000000     0.323350000000     0          
O        O      0.676650000000     0.823350000000     0.000000000000     0          
O        O      0.676650000000     0.676650000000     0.000000000000     0          
O        O      0.823350000000     0.676650000000     0.000000000000     0          
O        O      0.823350000000     0.823350000000     0.000000000000     0          
O        O      0.573350000000     0.750000000000     0.926650000000     0          
Si       Si     0.625000000000     0.750000000000     0.500000000000     0          
O        O      0.750000000000     0.573350000000     0.926650000000     0          
Si       Si     0.750000000000     0.625000000000     0.500000000000     0          
O        O      0.926650000000     0.750000000000     0.926650000000     0          
Si       Si     0.875000000000     0.750000000000     0.500000000000     0          
O        O      0.750000000000     0.926650000000     0.926650000000     0          
Si       Si     0.750000000000     0.875000000000     0.500000000000     0          
O        O      0.573350000000     0.750000000000     0.573350000000     0          
O        O      0.750000000000     0.573350000000     0.573350000000     0          
O        O      0.926650000000     0.750000000000     0.573350000000     0          
O        O      0.750000000000     0.926650000000     0.573350000000     0          
O        O      0.926650000000     0.573350000000     0.750000000000     0          
Si       Si     0.500000000000     0.625000000000     0.750000000000     0          
O        O      0.926650000000     0.926650000000     0.750000000000     0          
Si       Si     0.875000000000     0.500000000000     0.750000000000     0          
O        O      0.573350000000     0.926650000000     0.750000000000     0          
Si       Si     0.500000000000     0.875000000000     0.750000000000     0          
O        O      0.573350000000     0.573350000000     0.750000000000     0          
Si       Si     0.625000000000     0.500000000000     0.750000000000     0          
Si       Si     0.750000000000     0.500000000000     0.625000000000     0          
Si       Si     0.750000000000     0.500000000000     0.875000000000     0          
Si       Si     0.500000000000     0.750000000000     0.875000000000     0          
Si       Si     0.500000000000     0.750000000000     0.625000000000     0          
O        O      0.823350000000     0.500000000000     0.676650000000     0          
O        O      0.500000000000     0.823350000000     0.676650000000     0          
O        O      0.676650000000     0.500000000000     0.676650000000     0          
O        O      0.500000000000     0.676650000000     0.676650000000     0          
O        O      0.823350000000     0.500000000000     0.823350000000     0          
O        O      0.500000000000     0.823350000000     0.823350000000     0          
O        O      0.676650000000     0.500000000000     0.823350000000     0          
O        O      0.500000000000     0.676650000000     0.823350000000     0          
O        O      0.676650000000     0.823350000000     0.500000000000     0          
O        O      0.676650000000     0.676650000000     0.500000000000     0          
O        O      0.823350000000     0.676650000000     0.500000000000     0          
O        O      0.823350000000     0.823350000000     0.500000000000     0          


