data_STW

_audit_creation_method RASPA-1.0
_audit_creation_date 2023-4-20
_audit_author_name 'Salvador Rodríguez Gómez'

_cell_length_a    11.887
_cell_length_b    11.887
_cell_length_c    29.915
_cell_angle_alpha 90
_cell_angle_beta  90
_cell_angle_gamma 120
_cell_volume      3660.7

_symmetry_cell_setting          triclinic
_symmetry_space_group_name_Hall 'P 1'
_symmetry_space_group_name_H-M  'P 1'
_symmetry_Int_Tables_number     1

_symmetry_equiv_pos_as_xyz 'x,y,z'

loop_
_atom_site_label
_atom_site_type_symbol
_atom_site_fract_x
_atom_site_fract_y
_atom_site_fract_z
_atom_site_charge
O        O      0.912800000000     0.000000000000     0.000000000000     0          
O        O      0.332800000000     0.572600000000     0.333700000000     0          
O        O      0.121600000000     0.212900000000     0.972800000000     0          
O        O      0.934400000000     0.065600000000     0.916700000000     0          
O        O      0.899800000000     0.208100000000     0.976800000000     0          
O        O      0.640200000000     0.320100000000     0.083300000000     0          
O        O      0.375800000000     0.344600000000     0.966400000000     0          
O        O      0.779700000000     0.316900000000     0.015400000000     0          
O        O      0.775200000000     0.531000000000     0.034800000000     0          
O        O      0.231100000000     0.324600000000     0.897100000000     0          
O        O      0.593700000000     0.559400000000     0.985800000000     0          
O        O      0.583700000000     0.416300000000     0.916700000000     0          
T        Si     0.691700000000     0.374800000000     0.033800000000     0          
T        Si     0.531800000000     0.413800000000     0.966700000000     0          
T        Si     0.299700000000     0.394200000000     0.850800000000     0          
T        Si     0.243200000000     0.338000000000     0.950600000000     0          
T        Si     0.967000000000     0.122100000000     0.966600000000     0          
O        O      0.912800000000     0.912800000000     0.166666666667     0          
O        O      0.760200000000     0.332800000000     0.500366666667     0          
O        O      0.908700000000     0.121600000000     0.139466666667     0          
O        O      0.868800000000     0.934400000000     0.083366666667     0          
O        O      0.691700000000     0.899800000000     0.143466666667     0          
O        O      0.320100000000     0.640200000000     0.249966666667     0          
O        O      0.031200000000     0.375800000000     0.133066666667     0          
O        O      0.462800000000     0.779700000000     0.182066666667     0          
O        O      0.244200000000     0.775200000000     0.201466666667     0          
O        O      0.906500000000     0.231100000000     0.063766666667     0          
O        O      0.034300000000     0.593700000000     0.152466666667     0          
O        O      0.167400000000     0.583700000000     0.083366666667     0          
T        Si     0.316900000000     0.691700000000     0.200466666667     0          
T        Si     0.118000000000     0.531800000000     0.133366666667     0          
T        Si     0.905500000000     0.299700000000     0.017466666667     0          
T        Si     0.905200000000     0.243200000000     0.117266666667     0          
T        Si     0.844900000000     0.967000000000     0.133266666667     0          
O        O      0.000000000000     0.912800000000     0.333333333333     0          
O        O      0.427400000000     0.760200000000     0.667033333333     0          
O        O      0.787100000000     0.908700000000     0.306133333333     0          
O        O      0.934400000000     0.868800000000     0.250033333333     0          
O        O      0.791900000000     0.691700000000     0.310133333333     0          
O        O      0.679900000000     0.320100000000     0.416633333333     0          
O        O      0.655400000000     0.031200000000     0.299733333333     0          
O        O      0.683100000000     0.462800000000     0.348733333333     0          
O        O      0.469000000000     0.244200000000     0.368133333333     0          
O        O      0.675400000000     0.906500000000     0.230433333333     0          
O        O      0.440600000000     0.034300000000     0.319133333333     0          
O        O      0.583700000000     0.167400000000     0.250033333333     0          
T        Si     0.625200000000     0.316900000000     0.367133333333     0          
T        Si     0.586200000000     0.118000000000     0.300033333333     0          
T        Si     0.605800000000     0.905500000000     0.184133333333     0          
T        Si     0.662000000000     0.905200000000     0.283933333333     0          
T        Si     0.877900000000     0.844900000000     0.299933333333     0          
O        O      0.087200000000     0.000000000000     0.500000000000     0          
O        O      0.667200000000     0.427400000000     0.833700000000     0          
O        O      0.878400000000     0.787100000000     0.472800000000     0          
O        O      0.065600000000     0.934400000000     0.416700000000     0          
O        O      0.100200000000     0.791900000000     0.476800000000     0          
O        O      0.359800000000     0.679900000000     0.583300000000     0          
O        O      0.624200000000     0.655400000000     0.466400000000     0          
O        O      0.220300000000     0.683100000000     0.515400000000     0          
O        O      0.224800000000     0.469000000000     0.534800000000     0          
O        O      0.768900000000     0.675400000000     0.397100000000     0          
O        O      0.406300000000     0.440600000000     0.485800000000     0          
O        O      0.416300000000     0.583700000000     0.416700000000     0          
T        Si     0.308300000000     0.625200000000     0.533800000000     0          
T        Si     0.468200000000     0.586200000000     0.466700000000     0          
T        Si     0.700300000000     0.605800000000     0.350800000000     0          
T        Si     0.756800000000     0.662000000000     0.450600000000     0          
T        Si     0.033000000000     0.877900000000     0.466600000000     0          
O        O      0.087200000000     0.087200000000     0.666666666667     0          
O        O      0.239800000000     0.667200000000     0.000366666667     0          
O        O      0.091300000000     0.878400000000     0.639466666667     0          
O        O      0.131200000000     0.065600000000     0.583366666667     0          
O        O      0.308300000000     0.100200000000     0.643466666667     0          
O        O      0.679900000000     0.359800000000     0.749966666667     0          
O        O      0.968800000000     0.624200000000     0.633066666667     0          
O        O      0.537200000000     0.220300000000     0.682066666667     0          
O        O      0.755800000000     0.224800000000     0.701466666667     0          
O        O      0.093500000000     0.768900000000     0.563766666667     0          
O        O      0.965700000000     0.406300000000     0.652466666667     0          
O        O      0.832600000000     0.416300000000     0.583366666667     0          
T        Si     0.683100000000     0.308300000000     0.700466666667     0          
T        Si     0.882000000000     0.468200000000     0.633366666667     0          
T        Si     0.094500000000     0.700300000000     0.517466666667     0          
T        Si     0.094800000000     0.756800000000     0.617266666667     0          
T        Si     0.155100000000     0.033000000000     0.633266666667     0          
O        O      0.000000000000     0.087200000000     0.833333333333     0          
O        O      0.572600000000     0.239800000000     0.167033333333     0          
O        O      0.212900000000     0.091300000000     0.806133333333     0          
O        O      0.065600000000     0.131200000000     0.750033333333     0          
O        O      0.208100000000     0.308300000000     0.810133333333     0          
O        O      0.320100000000     0.679900000000     0.916633333333     0          
O        O      0.344600000000     0.968800000000     0.799733333333     0          
O        O      0.316900000000     0.537200000000     0.848733333333     0          
O        O      0.531000000000     0.755800000000     0.868133333333     0          
O        O      0.324600000000     0.093500000000     0.730433333333     0          
O        O      0.559400000000     0.965700000000     0.819133333333     0          
O        O      0.416300000000     0.832600000000     0.750033333333     0          
T        Si     0.374800000000     0.683100000000     0.867133333333     0          
T        Si     0.413800000000     0.882000000000     0.800033333333     0          
T        Si     0.394200000000     0.094500000000     0.684133333333     0          
T        Si     0.338000000000     0.094800000000     0.783933333333     0          
T        Si     0.122100000000     0.155100000000     0.799933333333     0          
O        O      0.427400000000     0.667200000000     0.499633333333     0          
O        O      0.787100000000     0.878400000000     0.860533333333     0          
O        O      0.791900000000     0.100200000000     0.856533333333     0          
O        O      0.655400000000     0.624200000000     0.866933333333     0          
O        O      0.683100000000     0.220300000000     0.817933333333     0          
O        O      0.469000000000     0.224800000000     0.798533333333     0          
O        O      0.675400000000     0.768900000000     0.936233333333     0          
O        O      0.440600000000     0.406300000000     0.847533333333     0          
T        Si     0.625200000000     0.308300000000     0.799533333333     0          
T        Si     0.586200000000     0.468200000000     0.866633333333     0          
T        Si     0.605800000000     0.700300000000     0.982533333333     0          
T        Si     0.662000000000     0.756800000000     0.882733333333     0          
T        Si     0.877900000000     0.033000000000     0.866733333333     0          
O        O      0.760200000000     0.427400000000     0.666300000000     0          
O        O      0.908700000000     0.787100000000     0.027200000000     0          
O        O      0.691700000000     0.791900000000     0.023200000000     0          
O        O      0.031200000000     0.655400000000     0.033600000000     0          
O        O      0.462800000000     0.683100000000     0.984600000000     0          
O        O      0.244200000000     0.469000000000     0.965200000000     0          
O        O      0.906500000000     0.675400000000     0.102900000000     0          
O        O      0.034300000000     0.440600000000     0.014200000000     0          
T        Si     0.316900000000     0.625200000000     0.966200000000     0          
T        Si     0.118000000000     0.586200000000     0.033300000000     0          
T        Si     0.905500000000     0.605800000000     0.149200000000     0          
T        Si     0.905200000000     0.662000000000     0.049400000000     0          
T        Si     0.844900000000     0.877900000000     0.033400000000     0          
O        O      0.332800000000     0.760200000000     0.832966666667     0          
O        O      0.121600000000     0.908700000000     0.193866666667     0          
O        O      0.899800000000     0.691700000000     0.189866666667     0          
O        O      0.375800000000     0.031200000000     0.200266666667     0          
O        O      0.779700000000     0.462800000000     0.151266666667     0          
O        O      0.775200000000     0.244200000000     0.131866666667     0          
O        O      0.231100000000     0.906500000000     0.269566666667     0          
O        O      0.593700000000     0.034300000000     0.180866666667     0          
T        Si     0.691700000000     0.316900000000     0.132866666667     0          
T        Si     0.531800000000     0.118000000000     0.199966666667     0          
T        Si     0.299700000000     0.905500000000     0.315866666667     0          
T        Si     0.243200000000     0.905200000000     0.216066666667     0          
T        Si     0.967000000000     0.844900000000     0.200066666667     0          
O        O      0.572600000000     0.332800000000     0.999633333333     0          
O        O      0.212900000000     0.121600000000     0.360533333333     0          
O        O      0.208100000000     0.899800000000     0.356533333333     0          
O        O      0.344600000000     0.375800000000     0.366933333333     0          
O        O      0.316900000000     0.779700000000     0.317933333333     0          
O        O      0.531000000000     0.775200000000     0.298533333333     0          
O        O      0.324600000000     0.231100000000     0.436233333333     0          
O        O      0.559400000000     0.593700000000     0.347533333333     0          
T        Si     0.374800000000     0.691700000000     0.299533333333     0          
T        Si     0.413800000000     0.531800000000     0.366633333333     0          
T        Si     0.394200000000     0.299700000000     0.482533333333     0          
T        Si     0.338000000000     0.243200000000     0.382733333333     0          
T        Si     0.122100000000     0.967000000000     0.366733333333     0          
O        O      0.239800000000     0.572600000000     0.166300000000     0          
O        O      0.091300000000     0.212900000000     0.527200000000     0          
O        O      0.308300000000     0.208100000000     0.523200000000     0          
O        O      0.968800000000     0.344600000000     0.533600000000     0          
O        O      0.537200000000     0.316900000000     0.484600000000     0          
O        O      0.755800000000     0.531000000000     0.465200000000     0          
O        O      0.093500000000     0.324600000000     0.602900000000     0          
O        O      0.965700000000     0.559400000000     0.514200000000     0          
T        Si     0.683100000000     0.374800000000     0.466200000000     0          
T        Si     0.882000000000     0.413800000000     0.533300000000     0          
T        Si     0.094500000000     0.394200000000     0.649200000000     0          
T        Si     0.094800000000     0.338000000000     0.549400000000     0          
T        Si     0.155100000000     0.122100000000     0.533400000000     0          
O        O      0.667200000000     0.239800000000     0.332966666667     0          
O        O      0.878400000000     0.091300000000     0.693866666667     0          
O        O      0.100200000000     0.308300000000     0.689866666667     0          
O        O      0.624200000000     0.968800000000     0.700266666667     0          
O        O      0.220300000000     0.537200000000     0.651266666667     0          
O        O      0.224800000000     0.755800000000     0.631866666667     0          
O        O      0.768900000000     0.093500000000     0.769566666667     0          
O        O      0.406300000000     0.965700000000     0.680866666667     0          
T        Si     0.308300000000     0.683100000000     0.632866666667     0          
T        Si     0.468200000000     0.882000000000     0.699966666667     0          
T        Si     0.700300000000     0.094500000000     0.815866666667     0          
T        Si     0.756800000000     0.094800000000     0.716066666667     0          
T        Si     0.033000000000     0.155100000000     0.700066666667     0          


