data_ReferenceDataBase/STW
_audit_creation_method             Generated by GULP
_audit_author_name                 Salvador R. G. Balestra
_symmetry_space_group_name_H-M     'P 1             '
_symmetry_Int_Tables_number        1

loop_
_symmetry_equiv_pos_site_id
_symmetry_equiv_pos_as_xyz
   1     +x,+y,+z                
_cell_length_a                       11.8870
_cell_length_b                       11.8870
_cell_length_c                       29.9150
_cell_angle_alpha                   90.0000
_cell_angle_beta                    90.0000
_cell_angle_gamma                  120.0000

loop_
_atom_site_label
_atom_site_type_symbol
_atom_site_fract_x
_atom_site_fract_y
_atom_site_fract_z
_atom_site_charge
  O      O         0.912799999999947    0.000000000000000    0.000000000000000  0.0000
  O      O         0.332800000000020    0.572599999999966    0.333700000000022  0.0000
  O      O         0.121599999999944    0.212899999999991    0.972800000000007  0.0000
  O      O         0.934399999999982    0.065600000000018    0.916699999999992  0.0000
  O      O         0.899800000000027    0.208099999999945    0.976800000000026  0.0000
  O      O         0.640200000000050    0.320100000000025    0.083300000000008  0.0000
  O      O         0.375800000000027    0.344600000000014    0.966400000000021  0.0000
  O      O         0.779700000000048    0.316900000000032    0.015400000000000  0.0000
  O      O         0.775200000000041    0.530999999999949    0.034800000000018  0.0000
  O      O         0.231099999999969    0.324600000000032    0.897100000000023  0.0000
  O      O         0.593700000000013    0.559399999999982    0.985800000000040  0.0000
  O      O         0.583700000000022    0.416299999999978    0.916699999999992  0.0000
  Si     Si        0.691699999999969    0.374800000000050    0.033800000000042  0.0000
  Si     Si        0.531799999999976    0.413800000000037    0.966699999999946  0.0000
  Si     Si        0.299700000000030    0.394199999999955    0.850800000000049  0.0000
  Si     Si        0.243200000000002    0.337999999999965    0.950600000000009  0.0000
  Si     Si        0.966999999999985    0.122100000000046    0.966599999999971  0.0000
  O      O         0.912799999999947    0.912799999999947    0.166666699999951  0.0000
  O      O         0.760200000000054    0.332800000000020    0.500366699999972  0.0000
  O      O         0.908699999999953    0.121599999999944    0.139466699999957  0.0000
  O      O         0.868799999999965    0.934399999999982    0.083366700000056  0.0000
  O      O         0.691699999999969    0.899800000000027    0.143466699999976  0.0000
  O      O         0.320100000000025    0.640200000000050    0.249966699999959  0.0000
  O      O         0.031200000000013    0.375800000000027    0.133066699999972  0.0000
  O      O         0.462800000000016    0.779700000000048    0.182066699999950  0.0000
  O      O         0.244199999999978    0.775200000000041    0.201466699999969  0.0000
  O      O         0.906500000000051    0.231099999999969    0.063766699999974  0.0000
  O      O         0.034300000000030    0.593700000000013    0.152466699999991  0.0000
  O      O         0.167400000000043    0.583700000000022    0.083366700000056  0.0000
  Si     Si        0.316900000000032    0.691699999999969    0.200466699999993  0.0000
  Si     Si        0.118000000000052    0.531799999999976    0.133366700000010  0.0000
  Si     Si        0.905499999999961    0.299700000000030    0.017466700000000  0.0000
  Si     Si        0.905200000000036    0.243200000000002    0.117266699999959  0.0000
  Si     Si        0.844900000000052    0.966999999999985    0.133266700000036  0.0000
  O      O         0.000000000000000    0.912799999999947    0.333333300000049  0.0000
  O      O         0.427400000000034    0.760200000000054    0.667033299999957  0.0000
  O      O         0.787100000000009    0.908699999999953    0.306133300000056  0.0000
  O      O         0.934399999999982    0.868799999999965    0.250033300000041  0.0000
  O      O         0.791900000000055    0.691699999999969    0.310133299999961  0.0000
  O      O         0.679899999999975    0.320100000000025    0.416633299999944  0.0000
  O      O         0.655399999999986    0.031200000000013    0.299733299999957  0.0000
  O      O         0.683099999999968    0.462800000000016    0.348733300000049  0.0000
  O      O         0.469000000000051    0.244199999999978    0.368133299999954  0.0000
  O      O         0.675399999999968    0.906500000000051    0.230433299999959  0.0000
  O      O         0.440600000000018    0.034300000000030    0.319133299999976  0.0000
  O      O         0.583700000000022    0.167400000000043    0.250033300000041  0.0000
  Si     Si        0.625199999999950    0.316900000000032    0.367133299999978  0.0000
  Si     Si        0.586199999999963    0.118000000000052    0.300033299999996  0.0000
  Si     Si        0.605800000000045    0.905499999999961    0.184133299999985  0.0000
  Si     Si        0.662000000000035    0.905200000000036    0.283933299999944  0.0000
  Si     Si        0.877899999999954    0.844900000000052    0.299933300000021  0.0000
  O      O         0.087200000000053    0.000000000000000    0.500000000000000  0.0000
  O      O         0.667199999999980    0.427400000000034    0.833700000000022  0.0000
  O      O         0.878400000000056    0.787100000000009    0.472800000000007  0.0000
  O      O         0.065600000000018    0.934399999999982    0.416699999999992  0.0000
  O      O         0.100199999999973    0.791900000000055    0.476800000000026  0.0000
  O      O         0.359799999999950    0.679899999999975    0.583300000000008  0.0000
  O      O         0.624199999999973    0.655399999999986    0.466400000000021  0.0000
  O      O         0.220299999999952    0.683099999999968    0.515400000000000  0.0000
  O      O         0.224799999999959    0.469000000000051    0.534800000000018  0.0000
  O      O         0.768900000000031    0.675399999999968    0.397100000000023  0.0000
  O      O         0.406299999999987    0.440600000000018    0.485800000000040  0.0000
  O      O         0.416299999999978    0.583700000000022    0.416699999999992  0.0000
  Si     Si        0.308300000000031    0.625199999999950    0.533800000000042  0.0000
  Si     Si        0.468200000000024    0.586199999999963    0.466699999999946  0.0000
  Si     Si        0.700299999999970    0.605800000000045    0.350800000000049  0.0000
  Si     Si        0.756799999999998    0.662000000000035    0.450600000000009  0.0000
  Si     Si        0.033000000000015    0.877899999999954    0.466599999999971  0.0000
  O      O         0.087200000000053    0.087200000000053    0.666666699999951  0.0000
  O      O         0.239799999999946    0.667199999999980    0.000366699999972  0.0000
  O      O         0.091300000000047    0.878400000000056    0.639466599999992  0.0000
  O      O         0.131200000000035    0.065600000000018    0.583366700000056  0.0000
  O      O         0.308300000000031    0.100199999999973    0.643466699999976  0.0000
  O      O         0.679899999999975    0.359799999999950    0.749966699999959  0.0000
  O      O         0.968799999999987    0.624199999999973    0.633066699999972  0.0000
  O      O         0.537199999999984    0.220299999999952    0.682066699999950  0.0000
  O      O         0.755800000000022    0.224799999999959    0.701466699999969  0.0000
  O      O         0.093499999999949    0.768900000000031    0.563766699999974  0.0000
  O      O         0.965699999999970    0.406299999999987    0.652466699999991  0.0000
  O      O         0.832599999999957    0.416299999999978    0.583366700000056  0.0000
  Si     Si        0.683099999999968    0.308300000000031    0.700466699999993  0.0000
  Si     Si        0.881999999999948    0.468200000000024    0.633366600000045  0.0000
  Si     Si        0.094500000000039    0.700299999999970    0.517466700000000  0.0000
  Si     Si        0.094799999999964    0.756799999999998    0.617266699999959  0.0000
  Si     Si        0.155099999999948    0.033000000000015    0.633266700000036  0.0000
  O      O         0.000000000000000    0.087200000000053    0.833333300000049  0.0000
  O      O         0.572599999999966    0.239799999999946    0.167033299999957  0.0000
  O      O         0.212899999999991    0.091300000000047    0.806133300000056  0.0000
  O      O         0.065600000000018    0.131200000000035    0.750033300000041  0.0000
  O      O         0.208099999999945    0.308300000000031    0.810133299999961  0.0000
  O      O         0.320100000000025    0.679899999999975    0.916633299999944  0.0000
  O      O         0.344600000000014    0.968799999999987    0.799733299999957  0.0000
  O      O         0.316900000000032    0.537199999999984    0.848733300000049  0.0000
  O      O         0.530999999999949    0.755800000000022    0.868133299999954  0.0000
  O      O         0.324600000000032    0.093499999999949    0.730433299999959  0.0000
  O      O         0.559399999999982    0.965699999999970    0.819133299999976  0.0000
  O      O         0.416299999999978    0.832599999999957    0.750033300000041  0.0000
  Si     Si        0.374800000000050    0.683099999999968    0.867133299999978  0.0000
  Si     Si        0.413800000000037    0.881999999999948    0.800033299999996  0.0000
  Si     Si        0.394199999999955    0.094500000000039    0.684133399999951  0.0000
  Si     Si        0.337999999999965    0.094799999999964    0.783933299999944  0.0000
  Si     Si        0.122100000000046    0.155099999999948    0.799933300000021  0.0000
  O      O         0.427400000000034    0.667199999999980    0.499633300000028  0.0000
  O      O         0.787100000000009    0.878400000000056    0.860533400000008  0.0000
  O      O         0.791900000000055    0.100199999999973    0.856533300000024  0.0000
  O      O         0.655399999999986    0.624199999999973    0.866933300000028  0.0000
  O      O         0.683099999999968    0.220299999999952    0.817933300000050  0.0000
  O      O         0.469000000000051    0.224799999999959    0.798533300000031  0.0000
  O      O         0.675399999999968    0.768900000000031    0.936233300000026  0.0000
  O      O         0.440600000000018    0.406299999999987    0.847533300000009  0.0000
  Si     Si        0.625199999999950    0.308300000000031    0.799533300000007  0.0000
  Si     Si        0.586199999999963    0.468200000000024    0.866633399999955  0.0000
  Si     Si        0.605800000000045    0.700299999999970    0.982533300000000  0.0000
  Si     Si        0.662000000000035    0.756799999999998    0.882733300000041  0.0000
  Si     Si        0.877899999999954    0.033000000000015    0.866733299999964  0.0000
  O      O         0.760200000000054    0.427400000000034    0.666299999999978  0.0000
  O      O         0.908699999999953    0.787100000000009    0.027199999999993  0.0000
  O      O         0.691699999999969    0.791900000000055    0.023199999999974  0.0000
  O      O         0.031200000000013    0.655399999999986    0.033599999999979  0.0000
  O      O         0.462800000000016    0.683099999999968    0.984600000000000  0.0000
  O      O         0.244199999999978    0.469000000000051    0.965199999999982  0.0000
  O      O         0.906500000000051    0.675399999999968    0.102899999999977  0.0000
  O      O         0.034300000000030    0.440600000000018    0.014199999999960  0.0000
  Si     Si        0.316900000000032    0.625199999999950    0.966199999999958  0.0000
  Si     Si        0.118000000000052    0.586199999999963    0.033300000000054  0.0000
  Si     Si        0.905499999999961    0.605800000000045    0.149199999999951  0.0000
  Si     Si        0.905200000000036    0.662000000000035    0.049399999999991  0.0000
  Si     Si        0.844900000000052    0.877899999999954    0.033400000000029  0.0000
  O      O         0.332800000000020    0.760200000000054    0.832966700000043  0.0000
  O      O         0.121599999999944    0.908699999999953    0.193866699999944  0.0000
  O      O         0.899800000000027    0.691699999999969    0.189866700000039  0.0000
  O      O         0.375800000000027    0.031200000000013    0.200266700000043  0.0000
  O      O         0.779700000000048    0.462800000000016    0.151266699999951  0.0000
  O      O         0.775200000000041    0.244199999999978    0.131866700000046  0.0000
  O      O         0.231099999999969    0.906500000000051    0.269566700000041  0.0000
  O      O         0.593700000000013    0.034300000000030    0.180866700000024  0.0000
  Si     Si        0.691699999999969    0.316900000000032    0.132866700000022  0.0000
  Si     Si        0.531799999999976    0.118000000000052    0.199966700000004  0.0000
  Si     Si        0.299700000000030    0.905499999999961    0.315866700000015  0.0000
  Si     Si        0.243200000000002    0.905200000000036    0.216066700000056  0.0000
  Si     Si        0.966999999999985    0.844900000000052    0.200066699999979  0.0000
  O      O         0.572599999999966    0.332800000000020    0.999633300000028  0.0000
  O      O         0.212899999999991    0.121599999999944    0.360533300000043  0.0000
  O      O         0.208099999999945    0.899800000000027    0.356533300000024  0.0000
  O      O         0.344600000000014    0.375800000000027    0.366933300000028  0.0000
  O      O         0.316900000000032    0.779700000000048    0.317933300000050  0.0000
  O      O         0.530999999999949    0.775200000000041    0.298533300000031  0.0000
  O      O         0.324600000000032    0.231099999999969    0.436233300000026  0.0000
  O      O         0.559399999999982    0.593700000000013    0.347533300000009  0.0000
  Si     Si        0.374800000000050    0.691699999999969    0.299533300000007  0.0000
  Si     Si        0.413800000000037    0.531799999999976    0.366633299999990  0.0000
  Si     Si        0.394199999999955    0.299700000000030    0.482533300000000  0.0000
  Si     Si        0.337999999999965    0.243200000000002    0.382733300000041  0.0000
  Si     Si        0.122100000000046    0.966999999999985    0.366733299999964  0.0000
  O      O         0.239799999999946    0.572599999999966    0.166299999999978  0.0000
  O      O         0.091300000000047    0.212899999999991    0.527199999999993  0.0000
  O      O         0.308300000000031    0.208099999999945    0.523199999999974  0.0000
  O      O         0.968799999999987    0.344600000000014    0.533599999999979  0.0000
  O      O         0.537199999999984    0.316900000000032    0.484600000000000  0.0000
  O      O         0.755800000000022    0.530999999999949    0.465199999999982  0.0000
  O      O         0.093499999999949    0.324600000000032    0.602899999999977  0.0000
  O      O         0.965699999999970    0.559399999999982    0.514199999999960  0.0000
  Si     Si        0.683099999999968    0.374800000000050    0.466199999999958  0.0000
  Si     Si        0.881999999999948    0.413800000000037    0.533300000000054  0.0000
  Si     Si        0.094500000000039    0.394199999999955    0.649199999999951  0.0000
  Si     Si        0.094799999999964    0.337999999999965    0.549399999999991  0.0000
  Si     Si        0.155099999999948    0.122100000000046    0.533400000000029  0.0000
  O      O         0.667199999999980    0.239799999999946    0.332966700000043  0.0000
  O      O         0.878400000000056    0.091300000000047    0.693866699999944  0.0000
  O      O         0.100199999999973    0.308300000000031    0.689866700000039  0.0000
  O      O         0.624199999999973    0.968799999999987    0.700266700000043  0.0000
  O      O         0.220299999999952    0.537199999999984    0.651266699999951  0.0000
  O      O         0.224799999999959    0.755800000000022    0.631866700000046  0.0000
  O      O         0.768900000000031    0.093499999999949    0.769566700000041  0.0000
  O      O         0.406299999999987    0.965699999999970    0.680866700000024  0.0000
  Si     Si        0.308300000000031    0.683099999999968    0.632866700000022  0.0000
  Si     Si        0.468200000000024    0.881999999999948    0.699966700000004  0.0000
  Si     Si        0.700299999999970    0.094500000000039    0.815866600000049  0.0000
  Si     Si        0.756799999999998    0.094799999999964    0.716066700000056  0.0000
  Si     Si        0.033000000000015    0.155099999999948    0.700066699999979  0.0000
