data_ReferenceDataBase/FAU_posit_00.00GPa
_audit_creation_method             Generated by GULP
_audit_author_name                 Salvador R. G. Balestra
_symmetry_space_group_name_H-M     'P 1             '
_symmetry_Int_Tables_number        1

loop_
   1     +x,+y,+z                
_cell_length_a                       17.1696
_cell_length_b                       17.1696
_cell_length_c                       17.1696
_cell_angle_alpha                   59.9997
_cell_angle_beta                    59.9998
_cell_angle_gamma                   59.9997

loop_
_atom_site_label
_atom_site_type_symbol
_atom_site_fract_x
_atom_site_fract_y
_atom_site_fract_z
_atom_site_charge
  Si     Si        0.838808500000027    0.483815599999957    0.660812599999986  0.0000
  Si     Si        0.483830300000022    0.838797999999997    0.016553700000031  0.0000
  Si     Si        0.660813200000007    0.016552100000013    0.838811299999975  0.0000
  Si     Si        0.016557600000056    0.660809500000028    0.483818400000018  0.0000
  Si     Si        0.660812899999996    0.838802500000043    0.483819300000050  0.0000
  Si     Si        0.016553499999986    0.483824499999969    0.838805699999966  0.0000
  Si     Si        0.838812599999983    0.660806999999977    0.016559899999947  0.0000
  Si     Si        0.483820799999990    0.016549800000007    0.660816199999999  0.0000
  Si     Si        0.483819199999971    0.660806500000035    0.838809399999946  0.0000
  Si     Si        0.838805500000035    0.016545700000052    0.483830499999954  0.0000
  Si     Si        0.016560199999958    0.838804200000027    0.660813299999973  0.0000
  Si     Si        0.660815299999967    0.483814800000005    0.016557300000045  0.0000
  Si     Si        0.411195300000031    0.766164399999980    0.233449400000040  0.0000
  Si     Si        0.766181100000040    0.411184800000001    0.589188799999988  0.0000
  Si     Si        0.589184100000011    0.233437800000047    0.766181200000005  0.0000
  Si     Si        0.233442800000034    0.589179199999990    0.411190300000044  0.0000
  Si     Si        0.589187300000049    0.411183299999948    0.233442500000024  0.0000
  Si     Si        0.233445200000006    0.766174399999954    0.589182700000038  0.0000
  Si     Si        0.411192700000015    0.589180899999974    0.766179699999952  0.0000
  Si     Si        0.766171600000007    0.233442200000013    0.411196199999949  0.0000
  Si     Si        0.766180500000019    0.589175899999987    0.233445100000040  0.0000
  Si     Si        0.411190499999975    0.233436399999960    0.589186799999993  0.0000
  Si     Si        0.233448400000043    0.411188499999980    0.766171200000031  0.0000
  Si     Si        0.589186899999959    0.766174299999989    0.411191300000041  0.0000
  Si     Si        0.411191300000041    0.766174299999989    0.589186799999993  0.0000
  Si     Si        0.766171099999951    0.411188499999980    0.233448500000009  0.0000
  Si     Si        0.589186799999993    0.233436299999994    0.411190600000054  0.0000
  Si     Si        0.233445100000040    0.589175899999987    0.766180500000019  0.0000
  Si     Si        0.589188799999988    0.411184800000001    0.766181100000040  0.0000
  Si     Si        0.233449400000040    0.766164399999980    0.411195300000031  0.0000
  Si     Si        0.411190400000010    0.589179199999990    0.233442900000000  0.0000
  Si     Si        0.766181200000005    0.233437800000047    0.589184100000011  0.0000
  Si     Si        0.766179699999952    0.589180899999974    0.411192799999981  0.0000
  Si     Si        0.411196099999984    0.233442200000013    0.766171699999973  0.0000
  Si     Si        0.233442399999944    0.411183199999982    0.589187300000049  0.0000
  Si     Si        0.589182700000038    0.766174299999989    0.233445200000006  0.0000
  Si     Si        0.838805600000001    0.483824600000048    0.016553499999986  0.0000
  Si     Si        0.483819300000050    0.838802600000008    0.660812899999996  0.0000
  Si     Si        0.660816100000034    0.016549800000007    0.483820700000024  0.0000
  Si     Si        0.016560000000027    0.660806999999977    0.838812599999983  0.0000
  Si     Si        0.660813299999973    0.838804099999948    0.016560199999958  0.0000
  Si     Si        0.016557300000045    0.483814700000039    0.660815299999967  0.0000
  Si     Si        0.838809399999946    0.660806500000035    0.483819300000050  0.0000
  Si     Si        0.483830600000033    0.016545700000052    0.838805500000035  0.0000
  Si     Si        0.483818400000018    0.660809599999993    0.016557600000056  0.0000
  Si     Si        0.838811299999975    0.016552100000013    0.660813200000007  0.0000
  Si     Si        0.016553700000031    0.838797999999997    0.483830200000057  0.0000
  Si     Si        0.660812599999986    0.483815599999957    0.838808500000027  0.0000
  O      O         0.835683499999959    0.414312200000040    0.624999900000034  0.0000
  O      O         0.414336299999945    0.835662200000002    0.125000099999966  0.0000
  O      O         0.624976700000047    0.124996200000055    0.835693500000048  0.0000
  O      O         0.124998699999992    0.625009200000022    0.414310099999966  0.0000
  O      O         0.624999499999944    0.835678499999972    0.414318500000036  0.0000
  O      O         0.125000799999953    0.414329599999974    0.835669000000053  0.0000
  O      O         0.835694900000021    0.624969800000031    0.125003900000024  0.0000
  O      O         0.414313399999969    0.124992799999973    0.625014400000055  0.0000
  O      O         0.414318299999991    0.624992700000007    0.835684099999980  0.0000
  O      O         0.835668199999986    0.124994600000036    0.414337300000057  0.0000
  O      O         0.125002200000040    0.835687799999960    0.624976500000002  0.0000
  O      O         0.625015899999994    0.414304499999957    0.124998799999958  0.0000
  O      O         0.414318500000036    0.835678499999972    0.624999300000013  0.0000
  O      O         0.835668899999973    0.414329700000053    0.125000799999953  0.0000
  O      O         0.625014400000055    0.124992799999973    0.414313300000003  0.0000
  O      O         0.125003900000024    0.624969800000031    0.835694999999987  0.0000
  O      O         0.624999799999955    0.414312300000006    0.835683499999959  0.0000
  O      O         0.125000200000045    0.835662299999967    0.414336199999980  0.0000
  O      O         0.414310200000045    0.625009200000022    0.124998699999992  0.0000
  O      O         0.835693399999968    0.124996300000021    0.624976599999968  0.0000
  O      O         0.835684099999980    0.624992799999973    0.414318299999991  0.0000
  O      O         0.414337300000057    0.124994600000036    0.835668199999986  0.0000
  O      O         0.124998799999958    0.414304300000026    0.625015899999994  0.0000
  O      O         0.624976599999968    0.835687600000028    0.125002200000040  0.0000
  O      O         0.802397000000042    0.594804899999986    0.594812000000047  0.0000
  O      O         0.594823900000051    0.802390299999956    0.007967799999960  0.0000
  O      O         0.594825000000014    0.007959499999970    0.802397799999994  0.0000
  O      O         0.007992899999977    0.594799299999977    0.594806299999959  0.0000
  O      O         0.594811599999957    0.802390599999967    0.594811599999957  0.0000
  O      O         0.007967699999995    0.594815799999992    0.802400100000000  0.0000
  O      O         0.802400100000000    0.594815799999992    0.007967600000029  0.0000
  O      O         0.594807899999978    0.007982299999981    0.594807800000012  0.0000
  O      O         0.594811899999968    0.594804899999986    0.802397000000042  0.0000
  O      O         0.802397899999960    0.007959400000004    0.594825000000014  0.0000
  O      O         0.007967799999960    0.802390500000001    0.594823799999972  0.0000
  O      O         0.594806299999959    0.594799299999977    0.007992800000011  0.0000
  O      O         0.447602100000040    0.655173300000001    0.242029300000013  0.0000
  O      O         0.655190199999993    0.447598399999947    0.655190100000027  0.0000
  O      O         0.655196599999954    0.241997900000001    0.655196599999954  0.0000
  O      O         0.242029200000047    0.655173399999967    0.447602100000040  0.0000
  O      O         0.655180299999984    0.447596900000008    0.242028200000050  0.0000
  O      O         0.242003700000055    0.655189599999972    0.655197400000020  0.0000
  O      O         0.447604800000022    0.655183200000010    0.655189899999982  0.0000
  O      O         0.655179500000031    0.242022700000007    0.447604400000046  0.0000
  O      O         0.655197400000020    0.655189500000006    0.242003800000020  0.0000
  O      O         0.447604299999966    0.242022900000052    0.655179599999997  0.0000
  O      O         0.242028200000050    0.447596800000042    0.655180500000029  0.0000
  O      O         0.655189899999982    0.655183200000010    0.447604800000022  0.0000
  O      O         0.770670200000040    0.473727299999950    0.770670200000040  0.0000
  O      O         0.473748500000056    0.770666799999958    0.984909799999969  0.0000
  O      O         0.770673900000020    0.984929500000021    0.770673900000020  0.0000
  O      O         0.984909799999969    0.770666799999958    0.473748600000022  0.0000
  O      O         0.770669799999951    0.770664900000043    0.473731000000043  0.0000
  O      O         0.984909799999969    0.473744499999952    0.770671600000014  0.0000
  O      O         0.770673900000020    0.770666799999958    0.984937500000001  0.0000
  O      O         0.473748999999998    0.984902700000021    0.770673299999999  0.0000
  O      O         0.473730899999964    0.770664900000043    0.770669799999951  0.0000
  O      O         0.770673299999999    0.984902899999952    0.473748900000032  0.0000
  O      O         0.984937700000046    0.770666699999992    0.770673900000020  0.0000
  O      O         0.770671600000014    0.473744499999952    0.984909799999969  0.0000
  O      O         0.479327699999999    0.776239799999985    0.265097599999990  0.0000
  O      O         0.776267999999959    0.479324000000020    0.479330200000049  0.0000
  O      O         0.479327000000012    0.265092299999992    0.776247499999954  0.0000
  O      O         0.265071000000034    0.479320199999961    0.479326300000025  0.0000
  O      O         0.479326199999946    0.479320199999961    0.265071199999966  0.0000
  O      O         0.265097699999956    0.776239799999985    0.479327699999999  0.0000
  O      O         0.479330200000049    0.479324000000020    0.776267899999993  0.0000
  O      O         0.776247399999988    0.265092500000037    0.479327000000012  0.0000
  O      O         0.776247300000023    0.479321499999969    0.265098400000056  0.0000
  O      O         0.479326199999946    0.265067100000010    0.479326199999946  0.0000
  O      O         0.265098299999977    0.479321600000048    0.776247300000023  0.0000
  O      O         0.479329900000039    0.776262500000030    0.479329900000039  0.0000
  O      O         0.948083799999949    0.451495900000054    0.652333399999975  0.0000
  O      O         0.451502799999957    0.948076300000025    0.948082399999976  0.0000
  O      O         0.652337999999986    0.948078399999986    0.948084900000026  0.0000
  O      O         0.948084200000039    0.652326799999969    0.451500900000042  0.0000
  O      O         0.652333399999975    0.948078000000010    0.451501000000007  0.0000
  O      O         0.948082500000055    0.451494700000012    0.948082500000055  0.0000
  O      O         0.948086500000045    0.652332099999967    0.948086399999966  0.0000
  O      O         0.451501000000007    0.948078000000010    0.652333399999975  0.0000
  O      O         0.451500900000042    0.652326799999969    0.948084200000039  0.0000
  O      O         0.948082399999976    0.948076300000025    0.451502699999992  0.0000
  O      O         0.948084900000026    0.948078399999986    0.652338099999952  0.0000
  O      O         0.652333399999975    0.451495900000054    0.948083799999949  0.0000
  O      O         0.301917600000024    0.798491799999965    0.301917600000024  0.0000
  O      O         0.798498300000006    0.301910000000021    0.597670099999959  0.0000
  O      O         0.597670099999959    0.301910000000021    0.798498300000006  0.0000
  O      O         0.301915300000019    0.597657000000027    0.301915300000019  0.0000
  O      O         0.597665799999959    0.301908300000036    0.301915900000040  0.0000
  O      O         0.301917000000003    0.798491499999955    0.597668900000031  0.0000
  O      O         0.301918099999966    0.597661900000048    0.798498300000006  0.0000
  O      O         0.798497799999950    0.301910799999973    0.301918200000046  0.0000
  O      O         0.798498200000040    0.597661799999969    0.301918099999966  0.0000
  O      O         0.301916000000006    0.301908300000036    0.597665600000028  0.0000
  O      O         0.301918200000046    0.301910799999973    0.798497999999995  0.0000
  O      O         0.597668900000031    0.798491399999989    0.301917000000003  0.0000
