data_image0
_chemical_formula_structural       Si96O192
_chemical_formula_sum              "Si96 O192"
_cell_length_a       19.396567104217144
_cell_length_b       19.73400660773992
_cell_length_c       13.225112381455961
_cell_angle_alpha    89.99990819521605
_cell_angle_beta     91.75279514106741
_cell_angle_gamma    90.00014133430783

_symmetry_space_group_name_H-M     'P 1             '
_symmetry_Int_Tables_number        1
loop_
  _space_group_symop_operation_xyz
  'x, y, z'

loop_
  _atom_site_type_symbol
  _atom_site_label
  _atom_site_symmetry_multiplicity
  _atom_site_fract_x
  _atom_site_fract_y
  _atom_site_fract_z
  _atom_site_occupancy
  Si  Si1       1.0  0.054261789138266195  0.41758620452272044  0.672760967005722  1.0000
  Si  Si2       1.0  0.945832601687698  0.581825532854296  0.32807723735952987  1.0000
  Si  Si3       1.0  0.5542726806466618  0.081822468265635  0.1727863691349114  1.0000
  Si  Si4       1.0  0.4458530670037533  0.9175725996724893  0.8281275392766076  1.0000
  Si  Si5       1.0  0.0386966138644027  0.31402322218111317  0.8334587382474653  1.0000
  Si  Si6       1.0  0.961398506593042  0.6853837152401994  0.1673900804096462  1.0000
  Si  Si7       1.0  0.5387046342871216  0.1853851947257681  0.33348078980147733  1.0000
  Si  Si8       1.0  0.4614120601138083  0.8140098961662828  0.6674307004554265  1.0000
  Si  Si9       1.0  0.061706943002505496  0.28300231475600407  0.0526009377342262  1.0000
  Si  Si10      1.0  0.9384037458902766  0.716413558551558  0.9482418263230771  1.0000
  Si  Si11      1.0  0.5616996132504183  0.21640709798221278  0.552623461574612  1.0000
  Si  Si12      1.0  0.4383831341760214  0.7829904542442279  0.44828828402649634  1.0000
  Si  Si13      1.0  0.062492993990055395  0.1294956799117344  0.023688305575149105  1.0000
  Si  Si14      1.0  0.9376256347125533  0.8699205742105178  0.9771675632903012  1.0000
  Si  Si15      1.0  0.5624913369628715  0.3699172812998198  0.5237040132766424  1.0000
  Si  Si16      1.0  0.43761617692269533  0.6294842425583197  0.4772039982957992  1.0000
  Si  Si17      1.0  0.0254786688044959  0.08069611472334509  0.8149605692363765  1.0000
  Si  Si18      1.0  0.9746222272610296  0.9187210176586617  0.18590465749332452  1.0000
  Si  Si19      1.0  0.5254805225301665  0.41871681610849265  0.314971971400098  1.0000
  Si  Si20      1.0  0.4746298468438468  0.58067702941387  0.6859347074480198  1.0000
  Si  Si21      1.0  0.05507959742310929  0.1974498635319222  0.6824335038845675  1.0000
  Si  Si22      1.0  0.9450110584420699  0.8019558340366756  0.31841054067766816  1.0000
  Si  Si23      1.0  0.5550936316469404  0.3019571876814169  0.18246176013466453  1.0000
  Si  Si24      1.0  0.4450311463179161  0.6974385181680773  0.8184498896858089  1.0000
  Si  Si25      1.0  0.8311904458035143  0.4229250721102318  0.6643737474554213  1.0000
  Si  Si26      1.0  0.16890956368533236  0.5764871238348306  0.3365132280307392  1.0000
  Si  Si27      1.0  0.3311961100948793  0.0764797637797585  0.16437551989659482  1.0000
  Si  Si28      1.0  0.6689238519873015  0.9229103255792451  0.8365213846763382  1.0000
  Si  Si29      1.0  0.8811247427322114  0.301876332054114  0.8055777963661228  1.0000
  Si  Si30      1.0  0.11897074752835829  0.6975114073831961  0.1952716771546292  1.0000
  Si  Si31      1.0  0.38112899579808607  0.19752020629672978  0.3055964052326203  1.0000
  Si  Si32      1.0  0.6189807462622595  0.8018726998266813  0.6953024587458216  1.0000
  Si  Si33      1.0  0.8244785109819759  0.2663682505279681  0.015934905125995203  1.0000
  Si  Si34      1.0  0.17563248255108727  0.7330234099530486  0.9849280903570091  1.0000
  Si  Si35      1.0  0.32447147182708846  0.23302092256367496  0.5159490697089026  1.0000
  Si  Si36      1.0  0.6756218780318689  0.7663536392141381  0.4849531986916987  1.0000
  Si  Si37      1.0  0.8217840100483897  0.11219541118324369  0.017605035247598304  1.0000
  Si  Si38      1.0  0.1783345115773969  0.8872077660682647  0.983261547508974  1.0000
  Si  Si39      1.0  0.3217810486610446  0.38719911690465375  0.5176237955531776  1.0000
  Si  Si40      1.0  0.678329687387901  0.6121740256249879  0.48329388412925317  1.0000
  Si  Si41      1.0  0.8695153649620693  0.0653493758764512  0.8134135750882905  1.0000
  Si  Si42      1.0  0.1305916990325571  0.9340676441214838  0.1874496035024933  1.0000
  Si  Si43      1.0  0.3695131608804445  0.43405888645771995  0.3134306171614369  1.0000
  Si  Si44      1.0  0.6305976332275448  0.5653272714091456  0.6874817607192226  1.0000
  Si  Si45      1.0  0.8446730554462788  0.1814793701453965  0.6709478157870664  1.0000
  Si  Si46      1.0  0.15542610563548456  0.8179112659056569  0.3298600445551472  1.0000
  Si  Si47      1.0  0.3446759935214772  0.317924721100681  0.1709758321978398  1.0000
  Si  Si48      1.0  0.6554366593507694  0.6814808167584943  0.8299026708478507  1.0000
  Si  Si49      1.0  0.44507975957480983  0.4323773324486595  0.6471552222874735  1.0000
  Si  Si50      1.0  0.5550363883447033  0.5670164049382292  0.35375951861094995  1.0000
  Si  Si51      1.0  0.9450800304717859  0.0670203521529729  0.1471271135903081  1.0000
  Si  Si52      1.0  0.05503920060638019  0.9323901533538217  0.8537231077361298  1.0000
  Si  Si53      1.0  0.4747410257975773  0.3082680888664058  0.790638611811005  1.0000
  Si  Si54      1.0  0.5253905522966491  0.6911145461234938  0.2102616049980242  1.0000
  Si  Si55      1.0  0.974733054898678  0.1911300507565628  0.2906088700320169  1.0000
  Si  Si56      1.0  0.025380277793004804  0.8082937407575912  0.7102176634317275  1.0000
  Si  Si57      1.0  0.4413786020376094  0.27437374796492253  0.010543474258007302  1.0000
  Si  Si58      1.0  0.5587555008753426  0.7250135876492223  0.9903627191026132  1.0000
  Si  Si59      1.0  0.9413664537628321  0.22502796721617097  0.510512264460786  1.0000
  Si  Si60      1.0  0.0587359012746163  0.7743790384624487  0.4903227788905938  1.0000
  Si  Si61      1.0  0.43603126774203815  0.11916027055391251  0.0174342177403588  1.0000
  Si  Si62      1.0  0.5641055873293225  0.8802308286809435  0.9834701900096975  1.0000
  Si  Si63      1.0  0.9360154126104517  0.3802437311884717  0.5174183583875589  1.0000
  Si  Si64      1.0  0.0640689610016807  0.619165864000145  0.48343257223503144  1.0000
  Si  Si65      1.0  0.4788463344880257  0.0667510557142705  0.8060499694299709  1.0000
  Si  Si66      1.0  0.5212680165795263  0.9326430067615092  0.1948487261219185  1.0000
  Si  Si67      1.0  0.97884057308395  0.43265026081287045  0.3060378322686148  1.0000
  Si  Si68      1.0  0.021256378502656003  0.5667662118322666  0.6948133385722742  1.0000
  Si  Si69      1.0  0.432897483535676  0.1778479438525906  0.6712884547166241  1.0000
  Si  Si70      1.0  0.5671816501108324  0.8215466408236833  0.3296200814130898  1.0000
  Si  Si71      1.0  0.9329056051696013  0.3215564043833012  0.17126097386154981  1.0000
  Si  Si72      1.0  0.067202895636342  0.6778641645257721  0.8295715644757706  1.0000
  Si  Si73      1.0  0.6733215030172772  0.41558392431861785  0.6787778880191625  1.0000
  Si  Si74      1.0  0.3267838397343183  0.5838124640115722  0.32213647138605245  1.0000
  Si  Si75      1.0  0.1733227818240834  0.08381762518995119  0.1787546108727653  1.0000
  Si  Si76      1.0  0.8267951035406184  0.9155954582253543  0.8220980917322154  1.0000
  Si  Si77      1.0  0.6341874558588145  0.30408300699510693  0.8249422734650835  1.0000
  Si  Si78      1.0  0.3659391325356083  0.6952935250119054  0.17594654403361432  1.0000
  Si  Si79      1.0  0.134178985192122  0.19531216719784789  0.3249217347199576  1.0000
  Si  Si80      1.0  0.8659272201067835  0.8041094170993048  0.675905663619119  1.0000
  Si  Si81      1.0  0.6614232648613196  0.2654791986421046  0.03921254201139131  1.0000
  Si  Si82      1.0  0.3386869487745301  0.7339103811071083  0.961682987426677  1.0000
  Si  Si83      1.0  0.1614130678998364  0.2339200092502338  0.5391921132847983  1.0000
  Si  Si84      1.0  0.8386703159016022  0.7654812950386329  0.46164414365811984  1.0000
  Si  Si85      1.0  0.6650316861956327  0.11024411520024557  0.025285818920622205  1.0000
  Si  Si86      1.0  0.3350853402031078  0.8891458177375993  0.9756252642070607  1.0000
  Si  Si87      1.0  0.1650301519980246  0.389157118561748  0.5252706824593432  1.0000
  Si  Si88      1.0  0.8350793976154876  0.6102450499996621  0.4755948434142852  1.0000
  Si  Si89      1.0  0.6338890550042819  0.06687288479400878  0.7981222759975495  1.0000
  Si  Si90      1.0  0.36621966408364404  0.9325174873805863  0.20278186058624212  1.0000
  Si  Si91      1.0  0.1338885174774944  0.43252557778377104  0.2981117557517621  1.0000
  Si  Si92      1.0  0.8662200631454908  0.566885777615333  0.702762497706047  1.0000
  Si  Si93      1.0  0.6886919536162636  0.19069060405896468  0.7011384630555142  1.0000
  Si  Si94      1.0  0.3114213486617103  0.8086923136783568  0.2997423967041115  1.0000
  Si  Si95      1.0  0.18869157448506968  0.308708477045883  0.20111966001562107  1.0000
  Si  Si96      1.0  0.8114197076219085  0.6907129996189667  0.7997147964463879  1.0000
  O   O1        1.0  0.079013405862284  0.36789608254947126  0.7641802320274708  1.0000
  O   O2        1.0  0.9210673219277296  0.631520556409029  0.2366729124780562  1.0000
  O   O3        1.0  0.5790257510128497  0.1315146314142908  0.26420026059542323  1.0000
  O   O4        1.0  0.4210911069702163  0.867868655355295  0.7367327697871531  1.0000
  O   O5        1.0  0.0755189992739886  0.31802357605764797  0.9443987917317075  1.0000
  O   O6        1.0  0.924589392212134  0.6813884990204713  0.056441249438819306  1.0000
  O   O7        1.0  0.5755192707220971  0.1813818951086716  0.44442681161871184  1.0000
  O   O8        1.0  0.42458466785540583  0.8180152781729078  0.5564924562789387  1.0000
  O   O9        1.0  0.0325390745703515  0.20615070130966726  0.0356580920339908  1.0000
  O   O10       1.0  0.9675736489442599  0.7932657693115032  0.9651950469414032  1.0000
  O   O11       1.0  0.5325397292939655  0.29326152852650017  0.5356713753545463  1.0000
  O   O12       1.0  0.4675600992370832  0.7061429822689647  0.465235654865026  1.0000
  O   O13       1.0  0.0748999547867299  0.11112839440485799  0.9058146367617042  1.0000
  O   O14       1.0  0.9252074098210059  0.8882984145043905  0.0950366952695276  1.0000
  O   O15       1.0  0.5748995231028928  0.3882924648162813  0.4058324733441765  1.0000
  O   O16       1.0  0.42521198182308245  0.6111056149389852  0.5950760728432272  1.0000
  O   O17       1.0  0.0360293259520716  0.11941867222328278  0.7080623774919985  1.0000
  O   O18       1.0  0.9640522099554615  0.8799916803791915  0.2927892266873826  1.0000
  O   O19       1.0  0.536046748072401  0.37999146772127546  0.20807901540854354  1.0000
  O   O20       1.0  0.4640722847757885  0.6194032249605286  0.7928266228932302  1.0000
  O   O21       1.0  0.0468339874348658  0.23858543842239044  0.7873016505262527  1.0000
  O   O22       1.0  0.9532706132766506  0.7608265264923232  0.21354112904239034  1.0000
  O   O23       1.0  0.5468450670929954  0.2608270378951758  0.2873325733731278  1.0000
  O   O24       1.0  0.4532875773398359  0.7385664519778458  0.7135766628720575  1.0000
  O   O25       1.0  0.8436641715680792  0.3531540085513072  0.726174050068515  1.0000
  O   O26       1.0  0.15643446869544417  0.6462601279002413  0.2747150202327617  1.0000
  O   O27       1.0  0.3436741809771675  0.1462522069900203  0.2261722912019906  1.0000
  O   O28       1.0  0.6564453755167605  0.8531388169391931  0.7747239337656991  1.0000
  O   O29       1.0  0.8317185066098745  0.2944285258367643  0.9014957746356345  1.0000
  O   O30       1.0  0.16837387690446798  0.7049196164486132  0.0993444560262589  1.0000
  O   O31       1.0  0.3317285372600693  0.2049356449267634  0.4015255962670992  1.0000
  O   O32       1.0  0.6683940313275655  0.7944320330018398  0.5993871060981989  1.0000
  O   O33       1.0  0.8534108392597588  0.18884549476823048  0.0244769334266337  1.0000
  O   O34       1.0  0.1467142414049007  0.8105551444625972  0.9764463058448599  1.0000
  O   O35       1.0  0.3534001282105876  0.3105461781747181  0.5244730388583889  1.0000
  O   O36       1.0  0.6467018577545146  0.6888249894743125  0.47646397800243534  1.0000
  O   O37       1.0  0.8158375953306631  0.08761940453287309  0.8998533379490398  1.0000
  O   O38       1.0  0.1842668852920326  0.9118134699634125  0.1010019063390288  1.0000
  O   O39       1.0  0.3158430398407361  0.4117884664523003  0.3998773477825495  1.0000
  O   O40       1.0  0.6842768608554337  0.5875765178532291  0.601035502794133  1.0000
  O   O41       1.0  0.8483495314994158  0.10294676532907229  0.7075922699930004  1.0000
  O   O42       1.0  0.1517618130323584  0.8964543664884771  0.2932545076316941  1.0000
  O   O43       1.0  0.3483424756737534  0.3964608032768808  0.2076114680750933  1.0000
  O   O44       1.0  0.6517706755107467  0.6029424941724102  0.7932838073021955  1.0000
  O   O45       1.0  0.889961795339758  0.22825712829433797  0.7508076440448904  1.0000
  O   O46       1.0  0.11013073657171189  0.7711510195335051  0.24998641569609253  1.0000
  O   O47       1.0  0.3899523716301728  0.2711527517588266  0.2508576143818928  1.0000
  O   O48       1.0  0.6101289306104576  0.7282472774302136  0.7500503905682124  1.0000
  O   O49       1.0  0.9565395627365588  0.3307994913860384  0.8410247588059008  1.0000
  O   O50       1.0  0.0435517742388427  0.6685819028004472  0.1598566902394936  1.0000
  O   O51       1.0  0.45654894915740835  0.16860268861957908  0.341027728553648  1.0000
  O   O52       1.0  0.5435653196656887  0.8308032199227993  0.6598636490487522  1.0000
  O   O53       1.0  0.9464057113856512  0.08847668558532008  0.8517555128552486  1.0000
  O   O54       1.0  0.05369803010963639  0.9109404611378833  0.1491240601963213  1.0000
  O   O55       1.0  0.4464062434257556  0.410928948228495  0.3517566952994784  1.0000
  O   O56       1.0  0.5537035374297901  0.5884540592348273  0.6491495563602285  1.0000
  O   O57       1.0  0.118821052834555  0.4337948736384901  0.6012382449912792  1.0000
  O   O58       1.0  0.8812820990734876  0.5656116863215955  0.3996123357364  1.0000
  O   O59       1.0  0.6188332498235951  0.0656071417559474  0.10127042902239221  1.0000
  O   O60       1.0  0.3813059139026223  0.9337833961707741  0.8996697488732508  1.0000
  O   O61       1.0  0.9919271244948575  0.3789036059529352  0.6113666173625988  1.0000
  O   O62       1.0  0.0081727835815926  0.6205047914950866  0.3894639756774012  1.0000
  O   O63       1.0  0.49194218192265987  0.12050427563138298  0.11138248422152941  1.0000
  O   O64       1.0  0.5082011750641868  0.8789046170512193  0.8895101719412609  1.0000
  O   O65       1.0  0.8658835684455538  0.4166572327724438  0.5541414037536541  1.0000
  O   O66       1.0  0.1342075982186941  0.5827500755226467  0.4467407058787458  1.0000
  O   O67       1.0  0.3659010667324765  0.08274181664078378  0.0541492155396028  1.0000
  O   O68       1.0  0.6342431123151968  0.9166412992275781  0.9467636812492445  1.0000
  O   O69       1.0  0.133945356770468  0.2039502987945667  0.6449640170674443  1.0000
  O   O70       1.0  0.8661428632885233  0.795440853262093  0.355868831825525  1.0000
  O   O71       1.0  0.6339582722520802  0.2954517430902541  0.1449857677599411  1.0000
  O   O72       1.0  0.366165523693553  0.7039523232692841  0.8559085453095392  1.0000
  O   O73       1.0  0.005658474021650799  0.22669695721822342  0.591609885306319  1.0000
  O   O74       1.0  0.9944317753308525  0.772718892138748  0.4092439034696085  1.0000
  O   O75       1.0  0.505668449887267  0.2727043653193988  0.09164499198602981  1.0000
  O   O76       1.0  0.49445181264133703  0.7266775216833635  0.9092834284741046  1.0000
  O   O77       1.0  0.8757353981536368  0.1873571802419747  0.5589871738383678  1.0000
  O   O78       1.0  0.124376255567654  0.8120189646367206  0.44182636601574643  1.0000
  O   O79       1.0  0.3757494336770648  0.3120423466010108  0.0590222683888584  1.0000
  O   O80       1.0  0.6243906769196599  0.6873589058817586  0.941875802491225  1.0000
  O   O81       1.0  0.0438810694254315  0.0024145510727819996  0.792329304158976  1.0000
  O   O82       1.0  0.956231718288862  0.997006311288345  0.2085492624393908  1.0000
  O   O83       1.0  0.5438691974403014  0.49700358474726875  0.2923372611226469  1.0000
  O   O84       1.0  0.45622888611883633  0.5023933444721962  0.7085740074203316  1.0000
  O   O85       1.0  0.868590532791991  0.9841485490511628  0.7941950530676607  1.0000
  O   O86       1.0  0.1315256477228459  0.015267852400491198  0.20667940520309  1.0000
  O   O87       1.0  0.3685800659809431  0.5152605731653138  0.2942183060424526  1.0000
  O   O88       1.0  0.6315218010206038  0.48412674469622635  0.70672017581294  1.0000
  O   O89       1.0  0.749733067257857  0.4361631913127794  0.6448461633243171  1.0000
  O   O90       1.0  0.2503660306807944  0.563247160115587  0.3560541894981313  1.0000
  O   O91       1.0  0.2497386635338543  0.0632502322972357  0.144830476761399  1.0000
  O   O92       1.0  0.75038026039239  0.9361595570280555  0.8560323791091946  1.0000
  O   O93       1.0  0.765555591071319  0.20798570098548197  0.6649414744655715  1.0000
  O   O94       1.0  0.2345362487356368  0.7913847792080019  0.33582091528273145  1.0000
  O   O95       1.0  0.2655597349937509  0.2914159856030735  0.16494567513299782  1.0000
  O   O96       1.0  0.7345442302131177  0.7080144761211641  0.8358510825980333  1.0000
  O   O97       1.0  0.7443982647592619  0.2683913068879065  0.0443380329462855  1.0000
  O   O98       1.0  0.2557124554572638  0.7309982267466423  0.9565209842375495  1.0000
  O   O99       1.0  0.24438793964446856  0.23100126313890706  0.5443258326335183  1.0000
  O   O100      1.0  0.7556920922372683  0.7683867184782116  0.45649121136225557  1.0000
  O   O101      1.0  0.7453065145973383  0.1098183237450598  0.06417430802526522  1.0000
  O   O102      1.0  0.25481677619472975  0.8895824487407182  0.936704048191814  1.0000
  O   O103      1.0  0.24530014834944316  0.38958291342150625  0.564184327550521  1.0000
  O   O104      1.0  0.7548041859292027  0.6098073718667436  0.43671249538378737  1.0000
  O   O105      1.0  0.4425404742881511  0.3722510811827958  0.7298329662379289  1.0000
  O   O106      1.0  0.557608639227908  0.6271491595606378  0.2710934982369295  1.0000
  O   O107      1.0  0.9425291679536585  0.12714897266025096  0.2297993292856972  1.0000
  O   O108      1.0  0.0575769646891402  0.8722772023557396  0.7710265037081286  1.0000
  O   O109      1.0  0.4617525272373584  0.3161548991638766  0.9104399043680047  1.0000
  O   O110      1.0  0.5384009618214165  0.6832227609786301  0.09046710324608398  1.0000
  O   O111      1.0  0.9617397051110217  0.18324552760297758  0.4104078342024239  1.0000
  O   O112      1.0  0.0383890275358709  0.8161779778962172  0.5904226065669819  1.0000
  O   O113      1.0  0.4214588529402262  0.19654023924245217  0.9807631894767114  1.0000
  O   O114      1.0  0.5786675572188713  0.8028493669743638  0.020136511611724504  1.0000
  O   O115      1.0  0.9214462521247525  0.3028632320688373  0.48074460825731796  1.0000
  O   O116      1.0  0.078633969614252  0.6965430435798864  0.520116126790434  1.0000
  O   O117      1.0  0.4659931714454899  0.07483817336822798  0.9259855676980139  1.0000
  O   O118      1.0  0.5341487192494938  0.9245501209664225  0.0749243560909818  1.0000
  O   O119      1.0  0.9659681531116249  0.42457143514726425  0.42596852078894193  1.0000
  O   O120      1.0  0.034094603567204694  0.5748448408628519  0.5748726343975719  1.0000
  O   O121      1.0  0.4235328400327987  0.10871105544242002  0.7362593988076469  1.0000
  O   O122      1.0  0.5765694660079816  0.890691964446219  0.2646752761741382  1.0000
  O   O123      1.0  0.9235327557694858  0.390689082067709  0.2362346661235435  1.0000
  O   O124      1.0  0.07657478914327952  0.6087312807705415  0.7645897435589221  1.0000
  O   O125      1.0  0.4360253221888826  0.24070016883212725  0.7499350606319055  1.0000
  O   O126      1.0  0.5640661945345187  0.7587090270219504  0.25094808829123855  1.0000
  O   O127      1.0  0.9360250497591949  0.25870296387416397  0.24990412478364024  1.0000
  O   O128      1.0  0.06408030420315919  0.7407215726164792  0.750933953786685  1.0000
  O   O129      1.0  0.6774729067388847  0.3664103799245381  0.7776362252017107  1.0000
  O   O130      1.0  0.3226402720255805  0.632981302709851  0.2232725482476283  1.0000
  O   O131      1.0  0.1774643293649873  0.13298193399817387  0.2776237885575484  1.0000
  O   O132      1.0  0.8226472025638784  0.8664371271075381  0.7232226241203535  1.0000
  O   O133      1.0  0.6301064913724019  0.3121264203606842  0.9467396417562597  1.0000
  O   O134      1.0  0.369993868274868  0.687248130313705  0.0541489336576078  1.0000
  O   O135      1.0  0.1300969770121512  0.18727242172355568  0.4467178449996752  1.0000
  O   O136      1.0  0.8699795016995182  0.812146122935097  0.5541037158534721  1.0000
  O   O137      1.0  0.6350467939938298  0.18746964181379158  0.022981792406000102  1.0000
  O   O138      1.0  0.3650634400619737  0.8119193765811018  0.9779419555652283  1.0000
  O   O139      1.0  0.135043835718669  0.3119321984584786  0.5229542667213707  1.0000
  O   O140      1.0  0.8650522748455742  0.6874754429256597  0.4778993379820022  1.0000
  O   O141      1.0  0.6599986621550187  0.0761777157071037  0.9144906553443876  1.0000
  O   O142      1.0  0.3400959001334201  0.9232151573010298  0.08642021510038231  1.0000
  O   O143      1.0  0.1600148693232981  0.42322618260485706  0.4144751711773297  1.0000
  O   O144      1.0  0.8401225857210902  0.5761766461221426  0.5863872774893367  1.0000
  O   O145      1.0  0.6823854889882597  0.1097364219268187  0.7228848754196022  1.0000
  O   O146      1.0  0.3177349629790172  0.8896497897506919  0.2780296875771455  1.0000
  O   O147      1.0  0.1823780938555259  0.3896619077397432  0.22286435446176972  1.0000
  O   O148      1.0  0.8177196259899233  0.6097570406567029  0.7779805681434767  1.0000
  O   O149      1.0  0.6733363367834002  0.2320425863161191  0.8052652452993954  1.0000
  O   O150      1.0  0.3268307663629457  0.7673542937746589  0.19562674220107112  1.0000
  O   O151      1.0  0.1733257344005494  0.26735373978700483  0.30524001393852274  1.0000
  O   O152      1.0  0.8267978736920937  0.7320619466095905  0.6955951699361903  1.0000
  O   O153      1.0  0.5573135527174529  0.3033779581906301  0.7714369018501657  1.0000
  O   O154      1.0  0.44281459536799866  0.695970738654232  0.2294415558230085  1.0000
  O   O155      1.0  0.0573066564726687  0.19601559412973296  0.271411681869438  1.0000
  O   O156      1.0  0.9428043908282006  0.8034131895672515  0.7293924544250956  1.0000
  O   O157      1.0  0.5555395081008854  0.0951485454750625  0.7827042212248047  1.0000
  O   O158      1.0  0.4445711782593236  0.9042439875187751  0.21816442541457093  1.0000
  O   O159      1.0  0.0555378735281664  0.4042491495222079  0.2827213726312224  1.0000
  O   O160      1.0  0.9445671846784619  0.5951646313656624  0.7181790671770898  1.0000
  O   O161      1.0  0.3725834478698147  0.4370934986131657  0.5824837053388805  1.0000
  O   O162      1.0  0.6275262073884704  0.5622751897350255  0.418440025333112  1.0000
  O   O163      1.0  0.8725876020566474  0.06229040492701189  0.0824442023466929  1.0000
  O   O164      1.0  0.12754117024713446  0.9370988024542797  0.9183837421408897  1.0000
  O   O165      1.0  0.5076833908371583  0.422965396743713  0.5694533709354346  1.0000
  O   O166      1.0  0.49242894784455155  0.5764442823925862  0.4314502473795869  1.0000
  O   O167      1.0  0.0076884640809851  0.07644319305865112  0.0694353655506106  1.0000
  O   O168      1.0  0.9924419002952262  0.9229637731803777  0.9314344532621847  1.0000
  O   O169      1.0  0.6359190961126515  0.37595475501771597  0.5847651513643016  1.0000
  O   O170      1.0  0.3641860162586639  0.6234402241724338  0.4161501972177888  1.0000
  O   O171      1.0  0.135922274987287  0.12345352380890519  0.0847454602700424  1.0000
  O   O172      1.0  0.8642015798752424  0.875957744361223  0.9160993935204118  1.0000
  O   O173      1.0  0.3672510396850228  0.18475103865342388  0.5939936948163904  1.0000
  O   O174      1.0  0.6328075740567627  0.8146213225267117  0.4069477014967617  1.0000
  O   O175      1.0  0.8672689286379976  0.31465357108103115  0.0939458350180473  1.0000
  O   O176      1.0  0.132842958449686  0.6847679346605701  0.9068753863265755  1.0000
  O   O177      1.0  0.5037308637300555  0.17300603334738437  0.6094377937126154  1.0000
  O   O178      1.0  0.4963312142748606  0.8263910131426329  0.39143087271695265  1.0000
  O   O179      1.0  0.0037472505757278995  0.32640444579845246  0.1094320680760816  1.0000
  O   O180      1.0  0.996365076408253  0.6730135100667097  0.891410317933918  1.0000
  O   O181      1.0  0.6347195090910702  0.21687028346733678  0.6144466825554461  1.0000
  O   O182      1.0  0.365349911961026  0.7825114886350519  0.3864954567839689  1.0000
  O   O183      1.0  0.1347327603522928  0.2825322162017159  0.11440906886391392  1.0000
  O   O184      1.0  0.865378478123155  0.7168863236910353  0.8864285387480139  1.0000
  O   O185      1.0  0.4738574931200006  0.9870302128512308  0.7789121130159488  1.0000
  O   O186      1.0  0.526239840026804  0.0123668414963873  0.22196944683312134  1.0000
  O   O187      1.0  0.9738555359032475  0.5123680158376089  0.2788845282456053  1.0000
  O   O188      1.0  0.0262399377934557  0.4870450169128444  0.7219456225779766  1.0000
  O   O189      1.0  0.6367074495115901  0.9864059725956478  0.771512019609908  1.0000
  O   O190      1.0  0.3633912791340563  0.012982518854180102  0.2294029095809833  1.0000
  O   O191      1.0  0.1367084438781916  0.512990336723483  0.2714897308920143  1.0000
  O   O192      1.0  0.8633959146483434  0.48642049958244366  0.7293920354565699  1.0000
