data_THO_posit_00.00GPa

_audit_creation_method RASPA-1.0
_audit_creation_date 2025-3-17
_audit_author_name 'Salvador Rodríguez Gómez'

_cell_length_a    12.5923
_cell_length_b    12.6996
_cell_length_c    12.6831
_cell_angle_alpha 90.0157
_cell_angle_beta  90.0013
_cell_angle_gamma 90.0002
_cell_volume      2028.25

_symmetry_cell_setting          triclinic
_symmetry_space_group_name_Hall 'P 1'
_symmetry_space_group_name_H-M  'P 1'
_symmetry_Int_Tables_number     1

_symmetry_equiv_pos_as_xyz 'x,y,z'

loop_
_atom_site_label
_atom_site_type_symbol
_atom_site_fract_x
_atom_site_fract_y
_atom_site_fract_z
_atom_site_charge
Si       Si     0.115211100000     0.686568200000     0.500185700000     0          
Si       Si     0.115270900000     0.295816300000     0.500242800000     0          
Si       Si     0.308890600000     0.375055900000     0.380673600000     0          
Si       Si     0.308870400000     0.607314000000     0.380586400000     0          
Si       Si     0.886089600000     0.686575000000     0.999240800000     0          
Si       Si     0.886153000000     0.295832500000     0.999278300000     0          
Si       Si     0.692481000000     0.375090600000     0.118893000000     0          
Si       Si     0.692451600000     0.607341900000     0.118781700000     0          
Si       Si     0.615213200000     0.795830200000     0.999247400000     0          
Si       Si     0.615265100000     0.186562600000     0.999251400000     0          
Si       Si     0.808904700000     0.107341700000     0.118804400000     0          
Si       Si     0.808866700000     0.875086100000     0.118881700000     0          
Si       Si     0.386095200000     0.795825200000     0.500224900000     0          
Si       Si     0.386142500000     0.186571300000     0.500215900000     0          
Si       Si     0.192490700000     0.107309600000     0.380605300000     0          
Si       Si     0.192451300000     0.875058900000     0.380653600000     0          
Si       Si     0.886155200000     0.295834200000     0.499279500000     0          
Si       Si     0.886087400000     0.686576000000     0.499234900000     0          
Si       Si     0.692453700000     0.607341300000     0.618779800000     0          
Si       Si     0.692482100000     0.375090000000     0.618895900000     0          
Si       Si     0.115269000000     0.295817300000     0.000241100000     0          
Si       Si     0.115213200000     0.686569500000     0.000191100000     0          
Si       Si     0.308868600000     0.607313600000     0.880588000000     0          
Si       Si     0.308889300000     0.375055800000     0.880671100000     0          
Si       Si     0.386140500000     0.186572600000     0.000217300000     0          
Si       Si     0.386097400000     0.795826800000     0.000218900000     0          
Si       Si     0.192449000000     0.875058500000     0.880651500000     0          
Si       Si     0.192489600000     0.107309100000     0.880607600000     0          
Si       Si     0.615267100000     0.186563400000     0.499250100000     0          
Si       Si     0.615211000000     0.795831400000     0.499252700000     0          
Si       Si     0.808868700000     0.875085800000     0.618882600000     0          
Si       Si     0.808906500000     0.107341300000     0.618801300000     0          
Si       Si     0.250684500000     0.241146000000     0.690410100000     0          
Si       Si     0.750674300000     0.241271600000     0.809082900000     0          
Si       Si     0.750670400000     0.741262100000     0.309061900000     0          
Si       Si     0.250680700000     0.741171500000     0.190387200000     0          
Si       Si     0.250674100000     0.741168200000     0.690387400000     0          
Si       Si     0.750677000000     0.741259300000     0.809061800000     0          
Si       Si     0.750675300000     0.241275000000     0.309083000000     0          
Si       Si     0.250683100000     0.241148700000     0.190409900000     0          
O        O      0.144909500000     0.257104200000     0.618727600000     0          
O        O      0.144892500000     0.725210700000     0.618705600000     0          
O        O      0.268197800000     0.345503700000     0.762739400000     0          
O        O      0.268239400000     0.636798300000     0.762631400000     0          
O        O      0.000647300000     0.627977200000     0.499694000000     0          
O        O      0.207143900000     0.606234300000     0.460272500000     0          
O        O      0.207221200000     0.376166900000     0.460434700000     0          
O        O      0.106360600000     0.788156900000     0.420953700000     0          
O        O      0.106434000000     0.194266000000     0.420907400000     0          
O        O      0.362338500000     0.491190300000     0.380261000000     0          
O        O      0.856467600000     0.257232800000     0.880745300000     0          
O        O      0.856443300000     0.725279300000     0.880751700000     0          
O        O      0.733067600000     0.345666900000     0.736883200000     0          
O        O      0.733139200000     0.636924800000     0.736709200000     0          
O        O      0.000650000000     0.627977400000     0.999702200000     0          
O        O      0.794142700000     0.606223600000     0.039048200000     0          
O        O      0.794228900000     0.376153900000     0.039236000000     0          
O        O      0.894917900000     0.788125300000     0.078578100000     0          
O        O      0.895007300000     0.194213500000     0.078466400000     0          
O        O      0.638999400000     0.491210200000     0.119174200000     0          
O        O      0.644910300000     0.225251600000     0.880761900000     0          
O        O      0.644879500000     0.757198800000     0.880722300000     0          
O        O      0.768233400000     0.136944500000     0.736726800000     0          
O        O      0.768241800000     0.845651000000     0.736853000000     0          
O        O      0.500654300000     0.854432800000     0.999739900000     0          
O        O      0.707146900000     0.876152000000     0.039179400000     0          
O        O      0.707206200000     0.106213800000     0.039075400000     0          
O        O      0.606354000000     0.694228100000     0.078456700000     0          
O        O      0.606440800000     0.288126300000     0.078571000000     0          
O        O      0.862343100000     0.991206800000     0.119207600000     0          
O        O      0.356478900000     0.225221400000     0.618736800000     0          
O        O      0.356456600000     0.757151100000     0.618721100000     0          
O        O      0.233139000000     0.136771600000     0.762653000000     0          
O        O      0.233113100000     0.845522900000     0.762706300000     0          
O        O      0.500651400000     0.854432500000     0.499748600000     0          
O        O      0.294143900000     0.876158500000     0.460392100000     0          
O        O      0.294202600000     0.106234200000     0.460316700000     0          
O        O      0.394933400000     0.694254000000     0.420917900000     0          
O        O      0.394985200000     0.288154800000     0.420974900000     0          
O        O      0.139003100000     0.991192800000     0.380279900000     0          
O        O      0.856440200000     0.725284200000     0.380747600000     0          
O        O      0.856468300000     0.257238900000     0.380745400000     0          
O        O      0.733129200000     0.636925200000     0.236713800000     0          
O        O      0.733069500000     0.345667400000     0.236879500000     0          
O        O      0.000718400000     0.354425300000     0.499783100000     0          
O        O      0.794231900000     0.376154300000     0.539241100000     0          
O        O      0.794140100000     0.606224000000     0.539040100000     0          
O        O      0.895010100000     0.194212900000     0.578464300000     0          
O        O      0.894917400000     0.788124400000     0.578574300000     0          
O        O      0.639001000000     0.491209800000     0.619175400000     0          
O        O      0.144895900000     0.725216300000     0.118709500000     0          
O        O      0.144909100000     0.257108900000     0.118726800000     0          
O        O      0.268249000000     0.636799200000     0.262627600000     0          
O        O      0.268195800000     0.345503800000     0.262743400000     0          
O        O      0.000715700000     0.354424700000     0.999781200000     0          
O        O      0.207217800000     0.376167600000     0.960429400000     0          
O        O      0.207146600000     0.606235200000     0.960279700000     0          
O        O      0.106431900000     0.194265100000     0.920908000000     0          
O        O      0.106361100000     0.788156200000     0.920956600000     0          
O        O      0.362337200000     0.491190200000     0.880259900000     0          
O        O      0.356459700000     0.757157000000     0.118716700000     0          
O        O      0.356478200000     0.225226300000     0.118737400000     0          
O        O      0.233123300000     0.845523500000     0.262711200000     0          
O        O      0.233136600000     0.136772000000     0.262649700000     0          
O        O      0.500699600000     0.127972900000     0.999713200000     0          
O        O      0.294199600000     0.106234700000     0.960321500000     0          
O        O      0.294146800000     0.876159300000     0.960383500000     0          
O        O      0.394982700000     0.288154200000     0.920974000000     0          
O        O      0.394934300000     0.694253400000     0.920914500000     0          
O        O      0.139001500000     0.991192600000     0.880280800000     0          
O        O      0.644875900000     0.757203700000     0.380726200000     0          
O        O      0.644910700000     0.225257100000     0.380761700000     0          
O        O      0.768232100000     0.845651600000     0.236849600000     0          
O        O      0.768234600000     0.136945000000     0.236731100000     0          
O        O      0.500702100000     0.127972600000     0.499711600000     0          
O        O      0.707209600000     0.106214200000     0.539070000000     0          
O        O      0.707144400000     0.876152800000     0.539186000000     0          
O        O      0.606443000000     0.288125100000     0.578572500000     0          
O        O      0.606353600000     0.694227200000     0.578459500000     0          
O        O      0.862345000000     0.991206500000     0.619205300000     0          


