data_ReferenceDataBase/THO_posit_00.00GPa
_audit_creation_method             Generated by GULP
_audit_author_name                 Salvador R. G. Balestra
_symmetry_space_group_name_H-M     'P 1             '
_symmetry_Int_Tables_number        1

loop_
_symmetry_equiv_pos_site_id
_symmetry_equiv_pos_as_xyz
   1     +x,+y,+z                
_cell_length_a                       12.5923
_cell_length_b                       12.6996
_cell_length_c                       12.6831
_cell_angle_alpha                   90.0157
_cell_angle_beta                    90.0013
_cell_angle_gamma                   90.0002

loop_
_atom_site_label
_atom_site_type_symbol
_atom_site_fract_x
_atom_site_fract_y
_atom_site_fract_z
_atom_site_charge
  Si     Si        0.115211100000010    0.686568200000011    0.500185699999975  0.0000
  Si     Si        0.115270900000041    0.295816299999956    0.500242800000024  0.0000
  Si     Si        0.308890600000041    0.375055900000007    0.380673600000023  0.0000
  Si     Si        0.308870400000046    0.607313999999974    0.380586399999970  0.0000
  Si     Si        0.886089599999991    0.686574999999948    0.999240800000052  0.0000
  Si     Si        0.886153000000036    0.295832499999960    0.999278300000014  0.0000
  Si     Si        0.692481000000043    0.375090600000021    0.118892999999957  0.0000
  Si     Si        0.692451600000027    0.607341900000051    0.118781700000000  0.0000
  Si     Si        0.615213199999971    0.795830199999955    0.999247399999945  0.0000
  Si     Si        0.615265099999988    0.186562600000002    0.999251400000048  0.0000
  Si     Si        0.808904699999971    0.107341700000006    0.118804400000045  0.0000
  Si     Si        0.808866699999953    0.875086099999976    0.118881699999974  0.0000
  Si     Si        0.386095200000000    0.795825199999967    0.500224900000035  0.0000
  Si     Si        0.386142500000005    0.186571299999969    0.500215899999944  0.0000
  Si     Si        0.192490700000008    0.107309600000008    0.380605299999957  0.0000
  Si     Si        0.192451300000016    0.875058899999999    0.380653599999960  0.0000
  Si     Si        0.886155199999962    0.295834199999945    0.499279499999943  0.0000
  Si     Si        0.886087399999951    0.686575999999945    0.499234900000033  0.0000
  Si     Si        0.692453699999987    0.607341300000030    0.618779799999970  0.0000
  Si     Si        0.692482100000007    0.375090000000000    0.618895899999984  0.0000
  Si     Si        0.115269000000012    0.295817299999953    0.000241100000039  0.0000
  Si     Si        0.115213199999971    0.686569500000019    0.000191100000052  0.0000
  Si     Si        0.308868599999983    0.607313599999998    0.880587999999989  0.0000
  Si     Si        0.308889300000033    0.375055800000041    0.880671099999972  0.0000
  Si     Si        0.386140500000010    0.186572599999977    0.000217300000031  0.0000
  Si     Si        0.386097400000040    0.795826799999986    0.000218900000050  0.0000
  Si     Si        0.192449000000011    0.875058500000023    0.880651499999999  0.0000
  Si     Si        0.192489600000044    0.107309099999952    0.880607599999962  0.0000
  Si     Si        0.615267099999983    0.186563399999955    0.499250100000040  0.0000
  Si     Si        0.615211000000045    0.795831399999997    0.499252700000056  0.0000
  Si     Si        0.808868699999948    0.875085799999965    0.618882600000006  0.0000
  Si     Si        0.808906500000035    0.107341300000030    0.618801299999973  0.0000
  Si     Si        0.250684500000034    0.241145999999958    0.690410100000008  0.0000
  Si     Si        0.750674300000014    0.241271600000005    0.809082900000021  0.0000
  Si     Si        0.750670399999990    0.741262099999972    0.309061899999961  0.0000
  Si     Si        0.250680699999975    0.741171499999950    0.190387200000032  0.0000
  Si     Si        0.250674099999969    0.741168199999947    0.690387399999963  0.0000
  Si     Si        0.750676999999996    0.741259300000024    0.809061799999995  0.0000
  Si     Si        0.750675300000012    0.241274999999973    0.309082999999987  0.0000
  Si     Si        0.250683099999947    0.241148700000053    0.190409899999963  0.0000
  O      O         0.144909500000040    0.257104199999958    0.618727600000057  0.0000
  O      O         0.144892499999969    0.725210700000048    0.618705599999998  0.0000
  O      O         0.268197800000053    0.345503699999995    0.762739399999987  0.0000
  O      O         0.268239399999970    0.636798300000009    0.762631400000032  0.0000
  O      O         0.000647299999969    0.627977200000032    0.499693999999977  0.0000
  O      O         0.207143900000005    0.606234299999983    0.460272499999974  0.0000
  O      O         0.207221200000049    0.376166900000044    0.460434699999951  0.0000
  O      O         0.106360600000016    0.788156899999990    0.420953700000041  0.0000
  O      O         0.106434000000036    0.194265999999971    0.420907400000033  0.0000
  O      O         0.362338499999964    0.491190299999971    0.380261000000019  0.0000
  O      O         0.856467599999974    0.257232799999997    0.880745299999944  0.0000
  O      O         0.856443300000024    0.725279300000011    0.880751700000019  0.0000
  O      O         0.733067600000027    0.345666899999969    0.736883199999966  0.0000
  O      O         0.733139199999982    0.636924799999974    0.736709199999950  0.0000
  O      O         0.000649999999951    0.627977399999963    0.999702200000002  0.0000
  O      O         0.794142699999952    0.606223600000021    0.039048200000025  0.0000
  O      O         0.794228900000007    0.376153899999963    0.039235999999960  0.0000
  O      O         0.894917899999996    0.788125300000047    0.078578099999959  0.0000
  O      O         0.895007299999975    0.194213500000046    0.078466400000025  0.0000
  O      O         0.638999399999989    0.491210199999955    0.119174199999975  0.0000
  O      O         0.644910299999992    0.225251599999979    0.880761900000039  0.0000
  O      O         0.644879500000002    0.757198799999969    0.880722300000002  0.0000
  O      O         0.768233399999986    0.136944500000027    0.736726800000042  0.0000
  O      O         0.768241800000055    0.845650999999975    0.736852999999996  0.0000
  O      O         0.500654299999951    0.854432800000041    0.999739900000009  0.0000
  O      O         0.707146899999998    0.876152000000047    0.039179399999966  0.0000
  O      O         0.707206199999973    0.106213799999978    0.039075400000002  0.0000
  O      O         0.606354000000010    0.694228100000032    0.078456699999947  0.0000
  O      O         0.606440799999973    0.288126300000044    0.078571000000011  0.0000
  O      O         0.862343099999975    0.991206799999986    0.119207599999982  0.0000
  O      O         0.356478899999956    0.225221400000009    0.618736799999965  0.0000
  O      O         0.356456600000001    0.757151099999987    0.618721100000016  0.0000
  O      O         0.233139000000051    0.136771599999975    0.762653000000000  0.0000
  O      O         0.233113099999969    0.845522899999992    0.762706299999991  0.0000
  O      O         0.500651400000038    0.854432500000030    0.499748599999975  0.0000
  O      O         0.294143899999995    0.876158499999974    0.460392100000035  0.0000
  O      O         0.294202599999949    0.106234200000017    0.460316700000021  0.0000
  O      O         0.394933400000014    0.694254000000001    0.420917899999949  0.0000
  O      O         0.394985199999951    0.288154800000029    0.420974900000033  0.0000
  O      O         0.139003099999968    0.991192800000022    0.380279900000005  0.0000
  O      O         0.856440199999952    0.725284200000033    0.380747599999950  0.0000
  O      O         0.856468299999960    0.257238899999948    0.380745400000023  0.0000
  O      O         0.733129200000008    0.636925199999951    0.236713799999961  0.0000
  O      O         0.733069500000056    0.345667400000025    0.236879499999986  0.0000
  O      O         0.000718399999982    0.354425300000003    0.499783099999945  0.0000
  O      O         0.794231900000000    0.376154300000053    0.539241100000027  0.0000
  O      O         0.794140100000050    0.606223999999997    0.539040099999966  0.0000
  O      O         0.895010100000036    0.194212900000025    0.578464299999951  0.0000
  O      O         0.894917400000054    0.788124400000015    0.578574300000014  0.0000
  O      O         0.639001000000007    0.491209799999979    0.619175400000017  0.0000
  O      O         0.144895900000051    0.725216300000056    0.118709500000023  0.0000
  O      O         0.144909099999950    0.257108900000048    0.118726799999990  0.0000
  O      O         0.268248999999969    0.636799200000041    0.262627599999973  0.0000
  O      O         0.268195799999944    0.345503799999960    0.262743399999977  0.0000
  O      O         0.000715700000001    0.354424699999981    0.999781200000029  0.0000
  O      O         0.207217799999967    0.376167600000031    0.960429399999953  0.0000
  O      O         0.207146599999987    0.606235200000015    0.960279700000001  0.0000
  O      O         0.106431899999961    0.194265100000052    0.920908000000054  0.0000
  O      O         0.106361099999958    0.788156200000003    0.920956599999954  0.0000
  O      O         0.362337199999956    0.491190200000005    0.880259900000055  0.0000
  O      O         0.356459699999959    0.757157000000007    0.118716700000050  0.0000
  O      O         0.356478199999970    0.225226300000031    0.118737399999986  0.0000
  O      O         0.233123299999988    0.845523500000013    0.262711200000012  0.0000
  O      O         0.233136599999966    0.136771999999951    0.262649699999997  0.0000
  O      O         0.500699599999962    0.127972900000032    0.999713199999974  0.0000
  O      O         0.294199599999956    0.106234699999959    0.960321499999964  0.0000
  O      O         0.294146800000021    0.876159300000040    0.960383500000034  0.0000
  O      O         0.394982700000014    0.288154200000008    0.920974000000001  0.0000
  O      O         0.394934300000045    0.694253399999980    0.920914499999981  0.0000
  O      O         0.139001499999949    0.991192599999977    0.880280800000037  0.0000
  O      O         0.644875899999988    0.757203699999991    0.380726200000026  0.0000
  O      O         0.644910699999969    0.225257100000022    0.380761699999994  0.0000
  O      O         0.768232099999977    0.845651599999997    0.236849600000028  0.0000
  O      O         0.768234600000028    0.136944999999969    0.236731100000043  0.0000
  O      O         0.500702100000012    0.127972600000021    0.499711599999955  0.0000
  O      O         0.707209600000056    0.106214199999954    0.539070000000038  0.0000
  O      O         0.707144399999947    0.876152800000000    0.539185999999972  0.0000
  O      O         0.606443000000013    0.288125100000002    0.578572499999950  0.0000
  O      O         0.606353600000034    0.694227200000000    0.578459500000008  0.0000
  O      O         0.862345000000005    0.991206499999976    0.619205299999976  0.0000
