data_ReferenceDataBase/8049967_122
_audit_creation_method             Generated by GULP
_audit_author_name                 Salvador R. G. Balestra
_symmetry_space_group_name_H-M     'P 1             '
_symmetry_Int_Tables_number        1

loop_
_symmetry_equiv_pos_site_id
_symmetry_equiv_pos_as_xyz
   1     +x,+y,+z                
_cell_length_a                       26.1448
_cell_length_b                       17.0575
_cell_length_c                       19.6528
_cell_angle_alpha                   90.0000
_cell_angle_beta                    26.6499
_cell_angle_gamma                   90.0000

loop_
_atom_site_label
_atom_site_type_symbol
_atom_site_fract_x
_atom_site_fract_y
_atom_site_fract_z
_atom_site_charge
  Si     Si        0.214007033290051    0.229410409995436    0.356622077342378  0.0000
  Si     Si        0.766038145032625    0.229416261512646    0.174331598735493  0.0000
  Si     Si        0.714002815077976    0.479410532987460    0.356626312812069  0.0000
  Si     Si        0.266033841516081    0.479416135263960    0.174335909939751  0.0000
  Si     Si        0.193030690329844    0.368032844943843    0.142729624574853  0.0000
  Si     Si        0.787006953833736    0.368030342832221    0.388228916474982  0.0000
  Si     Si        0.693030220028076    0.118029160785711    0.142737485192078  0.0000
  Si     Si        0.287006421180450    0.118034113179026    0.388236879229538  0.0000
  Si     Si        0.948976909361082    0.333318782140235    0.386129911620309  0.0000
  Si     Si        0.031064575565312    0.333319412828152    0.144816553626990  0.0000
  Si     Si        0.448974422436113    0.083319053250966    0.386143039506357  0.0000
  Si     Si        0.531062044270261    0.083319168693736    0.144829728552132  0.0000
  Si     Si        0.724126975490705    0.192406410481585    0.463258935804966  0.0000
  Si     Si        0.255911708679175    0.192409872831454    0.067713103338009  0.0000
  Si     Si        0.224131270833094    0.442405036663382    0.463244241304755  0.0000
  Si     Si        0.755915934341470    0.442411257958011    0.067698470522494  0.0000
  Si     Si        0.122909227660865    0.130107075195694    0.344494589122839  0.0000
  Si     Si        0.857129996049128    0.130115544003733    0.186470197102044  0.0000
  Si     Si        0.622911067184736    0.380114534063756    0.344485775952446  0.0000
  Si     Si        0.357131752080486    0.380108096309636    0.186461439260158  0.0000
  O      O         0.259722125939314    0.163288426643621    0.352271756267547  0.0000
  O      O         0.720314187423561    0.163285776032246    0.178702504992860  0.0000
  O      O         0.759712285927579    0.413273631641119    0.352271218257358  0.0000
  O      O         0.220304198762905    0.413300642514157    0.178702091460079  0.0000
  O      O         0.187244996702394    0.191012579943921    0.316444350843327  0.0000
  O      O         0.792814363915165    0.191030896913185    0.214496029117062  0.0000
  O      O         0.687228896924431    0.441029418651640    0.316456973498741  0.0000
  O      O         0.292798026333210    0.441013990548469    0.214508895005689  0.0000
  O      O         0.312331912440145    0.292708412711832    0.226966852633766  0.0000
  O      O         0.667717176949949    0.292717773577850    0.303980224636121  0.0000
  O      O         0.812320801358882    0.042719701488192    0.226979176354112  0.0000
  O      O         0.167706014541041    0.042706501048910    0.303992647095658  0.0000
  O      O         0.100526260518285    0.267966508135778    0.022043564502675  0.0000
  O      O         0.879512976372297    0.267966134403510    0.008903881705365  0.0000
  O      O         0.600529718009505    0.517965084136326    0.022049344628170  0.0000
  O      O         0.379515627147319    0.517966207779816    0.008908859983594  0.0000
  O      O         0.258780888413466    0.285808889533589    0.066595660135281  0.0000
  O      O         0.721258382617264    0.285805014477508    0.464385036643878  0.0000
  O      O         0.758777315230865    0.035803814001726    0.066596952879374  0.0000
  O      O         0.221254785203002    0.035810149733715    0.464386467624879  0.0000
  O      O         0.056796158686185    0.357408679437860    0.303060676357554  0.0000
  O      O         0.923243292984035    0.357411894311700    0.227890178712878  0.0000
  O      O         0.556794453249245    0.107409806202761    0.303072294496300  0.0000
  O      O         0.423241529908954    0.107410904470046    0.227901910853133  0.0000
  O      O         0.238174080910146    0.416086873769738    0.024357105259494  0.0000
  O      O         0.741873505665590    0.416102710494838    0.506582402903960  0.0000
  O      O         0.738171151183336    0.166088900094974    0.024370222601863  0.0000
  O      O         0.241870515496354    0.166100852355182    0.506595585526565  0.0000
  O      O         0.990020124008976    0.296540935923223    0.265473787470130  0.0000
  O      O         0.490018623219135    0.046540939994322    0.265485949160988  0.0000
  O      O         0.872847136646783    0.410248842306710    0.461683630409220  0.0000
  O      O         0.107199499390191    0.410246878147671    0.069257477898555  0.0000
  O      O         0.372842879394188    0.160248149069543    0.461698562732391  0.0000
  O      O         0.607195291825041    0.160247543897651    0.069272363638663  0.0000
  O      O         0.831428455225466    0.157180147616695    0.294227753767019  0.0000
  O      O         0.148608040405141    0.157177489199155    0.236741441116910  0.0000
  O      O         0.331434662577352    0.407177534681194    0.294213015362630  0.0000
  O      O         0.648614201670916    0.407180179149673    0.236726802467019  0.0000
  O      O         0.990021018605269    0.131429993731347    0.015485285915319  0.0000
  O      O         0.490020085350826    0.381429891453905    0.015470471218492  0.0000
  Si     Si        0.214006793451376    0.229410570148315    0.856622132218271  0.0000
  Si     Si        0.766037790843908    0.229416095453353    0.674331763715701  0.0000
  Si     Si        0.714003081973630    0.479410372758385    0.856626240159323  0.0000
  Si     Si        0.266034205448858    0.479416315395919    0.674335720281754  0.0000
  Si     Si        0.193031035961363    0.368033126636724    0.642729249284459  0.0000
  Si     Si        0.787007270249154    0.368030103561455    0.888228581823329  0.0000
  Si     Si        0.693029863759265    0.118028879391602    0.642737868021016  0.0000
  Si     Si        0.287006104957272    0.118034331865056    0.888237211188128  0.0000
  Si     Si        0.948977116977966    0.333319267339263    0.886130149422727  0.0000
  Si     Si        0.031064767273769    0.333318989144809    0.644816807569797  0.0000
  Si     Si        0.448974226534813    0.083318552136502    0.886142764672357  0.0000
  Si     Si        0.531061880641047    0.083319595710198    0.644829415465199  0.0000
  Si     Si        0.724126965372175    0.192406402042328    0.963258884913691  0.0000
  Si     Si        0.255911632277693    0.192409892687373    0.567713142087750  0.0000
  Si     Si        0.224131278746938    0.442405038770600    0.963244303897458  0.0000
  Si     Si        0.755916018369572    0.442411260325823    0.567698429895851  0.0000
  Si     Si        0.122909262598289    0.130107019680564    0.844494470135599  0.0000
  Si     Si        0.857129909897761    0.130115597928579    0.686470157928624  0.0000
  Si     Si        0.622911064548916    0.380114614151777    0.844485869185796  0.0000
  Si     Si        0.357131802405641    0.380108047534316    0.686461510064408  0.0000
  O      O         0.259720719215247    0.163288530764671    0.852273502321243  0.0000
  O      O         0.720312692799875    0.163285625354070    0.678704360028503  0.0000
  O      O         0.759713636325922    0.413273479286760    0.852269532450553  0.0000
  O      O         0.220305693997590    0.413300803731186    0.678700226313188  0.0000
  O      O         0.187245372993679    0.191012568127841    0.816443649575920  0.0000
  O      O         0.792814552647355    0.191030944184223    0.714495552946092  0.0000
  O      O         0.687228565398136    0.441029464995320    0.816457621128178  0.0000
  O      O         0.292797845300231    0.441013964581561    0.714509349824902  0.0000
  O      O         0.312332193388655    0.292708297239908    0.726966607608163  0.0000
  O      O         0.667717378541394    0.292717914318869    0.803980018067702  0.0000
  O      O         0.812320416082362    0.042719838971339    0.726979546882892  0.0000
  O      O         0.167705831003553    0.042706381444520    0.803992844027549  0.0000
  O      O         0.100526638565934    0.267965848735037    0.522043997472345  0.0000
  O      O         0.879512505234377    0.267965433285230    0.508903532147166  0.0000
  O      O         0.600529303595752    0.517965721563131    0.522048950035749  0.0000
  O      O         0.379516118911793    0.517966905389978    0.508909171065841  0.0000
  O      O         0.258780395515924    0.285808885511168    0.566596157185868  0.0000
  O      O         0.721257951894543    0.285805024904213    0.964385467161498  0.0000
  O      O         0.758777796175439    0.035803810942901    0.566596459959316  0.0000
  O      O         0.221255214551506    0.035810121545785    0.964386061337458  0.0000
  O      O         0.056796348289131    0.357409680284065    0.803060772739296  0.0000
  O      O         0.923243468753374    0.357411010362551    0.727890303177952  0.0000
  O      O         0.556794253586326    0.107408792849109    0.803072205127993  0.0000
  O      O         0.423241360442846    0.107411775502324    0.727901763476434  0.0000
  O      O         0.238174495540827    0.416086921699373    0.524356532945783  0.0000
  O      O         0.741873843343236    0.416102680538310    0.006581927083402  0.0000
  O      O         0.738170701895648    0.166088869769036    0.524370833900207  0.0000
  O      O         0.241870185454756    0.166100878891915    0.006596040566553  0.0000
  O      O         0.990020480083655    0.296540965491422    0.765474052603995  0.0000
  O      O         0.490018317095012    0.046540906664827    0.765485602844975  0.0000
  O      O         0.872847092647627    0.410249084099491    0.961683753143062  0.0000
  O      O         0.107199503161392    0.410246664441240    0.569257544535194  0.0000
  O      O         0.372842924304536    0.160247887494860    0.961698423258503  0.0000
  O      O         0.607195292052250    0.160247771068154    0.569272273481305  0.0000
  O      O         0.831428441480164    0.157180347674852    0.794227592963995  0.0000
  O      O         0.148608002367832    0.157177273527864    0.736741346206667  0.0000
  O      O         0.331434672709166    0.407177355467490    0.794213170040999  0.0000
  O      O         0.648614249996137    0.407180414315417    0.736726892521182  0.0000
  O      O         0.990020940536855    0.131429824763790    0.515485279165266  0.0000
  O      O         0.490020123744762    0.381430003694787    0.515470493397562  0.0000
  Si     Si        0.214002176826775    0.729416141837873    0.356633473411085  0.0000
  Si     Si        0.766033307485772    0.729410501114283    0.174342935596527  0.0000
  Si     Si        0.714006000794603    0.979416252096480    0.356629248811880  0.0000
  Si     Si        0.266036973476562    0.979410390191937    0.174338916607687  0.0000
  Si     Si        0.193032677758872    0.868030140712254    0.142736740324976  0.0000
  Si     Si        0.787008945022754    0.868033059982495    0.388236041535920  0.0000
  Si     Si        0.693033941640427    0.618034318385469    0.142727897674254  0.0000
  Si     Si        0.287010142743969    0.618028930495099    0.388227312802317  0.0000
  Si     Si        0.948975225555241    0.833318925397440    0.386148483472292  0.0000
  Si     Si        0.031062876099567    0.833319251533836    0.144835142522440  0.0000
  Si     Si        0.448978188042778    0.583319670247914    0.386135648343501  0.0000
  Si     Si        0.531065831576011    0.583318619528652    0.144822305519547  0.0000
  Si     Si        0.724128355404684    0.692409866652561    0.463252051385806  0.0000
  Si     Si        0.255913119626423    0.692406467069524    0.067706177868548  0.0000
  Si     Si        0.224123941522151    0.942411326879722    0.463266846964606  0.0000
  Si     Si        0.755908620664563    0.942405020496410    0.067721089203891  0.0000
  Si     Si        0.122910115341820    0.630115662135364    0.344494970149244  0.0000
  Si     Si        0.857130840991482    0.630106988111215    0.186470629255612  0.0000
  Si     Si        0.622908311791540    0.880107981848332    0.344503657198951  0.0000
  Si     Si        0.357128940895490    0.880114627954604    0.186479374943308  0.0000
  O      O         0.259727271013812    0.663285649514078    0.352260862358106  0.0000
  O      O         0.720319496153492    0.663288473235232    0.178691397844901  0.0000
  O      O         0.759734382909100    0.913300850029234    0.352265014252629  0.0000
  O      O         0.220326291731955    0.913273466812494    0.178695839837581  0.0000
  O      O         0.187225363351241    0.691031009544832    0.316469747092420  0.0000
  O      O         0.792794713812993    0.691012486540204    0.214521430962316  0.0000
  O      O         0.687242626066389    0.941013766582653    0.316455336646486  0.0000
  O      O         0.292811585799369    0.941029527295177    0.214507426859142  0.0000
  O      O         0.312322593198457    0.792717948981558    0.226985211242103  0.0000
  O      O         0.667707806319006    0.792708177569271    0.303998517009048  0.0000
  O      O         0.812334312578773    0.542706342305580    0.226972251640722  0.0000
  O      O         0.167719611035569    0.542719899959108    0.303985592876995  0.0000
  O      O         0.100527212838537    0.767966211233524    0.022061190824201  0.0000
  O      O         0.879513841593421    0.767966490297369    0.008921569274512  0.0000
  O      O         0.600524339007125    0.017966206411171    0.022056304318964  0.0000
  O      O         0.379510298041913    0.017965027375271    0.008915753039934  0.0000
  O      O         0.258782116760623    0.785805097708973    0.066579612594477  0.0000
  O      O         0.721259507124635    0.785808862064085    0.464369143174848  0.0000
  O      O         0.758784702842654    0.535810054996104    0.066579193025783  0.0000
  O      O         0.221262245342471    0.535803859030528    0.464368710682472  0.0000
  O      O         0.056796494436594    0.857410949942178    0.303075042675568  0.0000
  O      O         0.923243616718552    0.857409526195063    0.227904531295229  0.0000
  O      O         0.556798663224924    0.607411878244271    0.303063385988395  0.0000
  O      O         0.423245765459808    0.607408879113332    0.227892945440720  0.0000
  O      O         0.238165927999483    0.916102835019000    0.024383634802393  0.0000
  O      O         0.741865496515981    0.916086806687190    0.506608769419991  0.0000
  O      O         0.738169896138553    0.666100832810077    0.024369024333780  0.0000
  O      O         0.241869286015201    0.666088923003457    0.506594365682834  0.0000
  O      O         0.990019575436803    0.796540921361459    0.265491164997168  0.0000
  O      O         0.490021799784370    0.546540992377300    0.265479412490549  0.0000
  O      O         0.872840441835640    0.910246589283001    0.461707817915501  0.0000
  O      O         0.107192672726868    0.910249161237312    0.069281828133452  0.0000
  O      O         0.372844727355513    0.660247837339175    0.461692872567727  0.0000
  O      O         0.607197180300926    0.660247925850492    0.069266583156515  0.0000
  O      O         0.831432051159040    0.657177295152193    0.294223790097061  0.0000
  O      O         0.148611656611176    0.657180423766482    0.236737461366730  0.0000
  O      O         0.331425680604416    0.907180402303989    0.294238440724918  0.0000
  O      O         0.648605201906268    0.907177388346755    0.236752274942071  0.0000
  O      O         0.990019084445420    0.631429932303026    0.015479834984615  0.0000
  O      O         0.490019942087427    0.881429870435497    0.015494850121283  0.0000
  Si     Si        0.214001962730816    0.729416300798629    0.856633489909371  0.0000
  Si     Si        0.766032934289851    0.729410321357142    0.674343154529633  0.0000
  Si     Si        0.714006177661059    0.979416098912930    0.856629276844043  0.0000
  Si     Si        0.266037316887924    0.979410560751380    0.674338776633374  0.0000
  Si     Si        0.193033039281329    0.868030427123784    0.642736323209070  0.0000
  Si     Si        0.787009277046161    0.868032858901082    0.888235688204049  0.0000
  Si     Si        0.693033582120340    0.618034055689178    0.642728287545002  0.0000
  Si     Si        0.287009807391615    0.618029156213843    0.888227665118708  0.0000
  Si     Si        0.948975440399872    0.833319431697558    0.886148685551652  0.0000
  Si     Si        0.031063091477953    0.833318827471667    0.644835344564614  0.0000
  Si     Si        0.448977975789030    0.583319166108720    0.886135412008068  0.0000
  Si     Si        0.531065612957782    0.583319019836138    0.644822084795752  0.0000
  Si     Si        0.724128374865129    0.692409876829843    0.963251969205396  0.0000
  Si     Si        0.255913027189000    0.692406480984471    0.567706240045214  0.0000
  Si     Si        0.224123869678962    0.942411319738066    0.963267023831540  0.0000
  Si     Si        0.755908708728118    0.942404988026092    0.567721050247712  0.0000
  Si     Si        0.122910106345715    0.630115607242805    0.844494898246235  0.0000
  Si     Si        0.857130809752032    0.630107039906223    0.686470551031099  0.0000
  Si     Si        0.622908244058788    0.880108034282751    0.844503806993170  0.0000
  Si     Si        0.357128973016002    0.880114543206347    0.686479499674534  0.0000
  O      O         0.259725887833004    0.663285719640106    0.852262546346531  0.0000
  O      O         0.720317929631265    0.663288346618341    0.678693343800177  0.0000
  O      O         0.759735791278727    0.913300699877002    0.852263219750870  0.0000
  O      O         0.220327758483722    0.913273618658983    0.678694005322058  0.0000
  O      O         0.187225626273383    0.691031031388835    0.816469183782913  0.0000
  O      O         0.792794837402164    0.691012460396194    0.714521043604523  0.0000
  O      O         0.687242116843232    0.941013843673941    0.816456178505057  0.0000
  O      O         0.292811359731970    0.941029461495742    0.714507972524567  0.0000
  O      O         0.312322969849120    0.792717786663877    0.726984796989889  0.0000
  O      O         0.667708020927215    0.792708316342470    0.803998372252996  0.0000
  O      O         0.812334119044474    0.542706430931527    0.726972465405093  0.0000
  O      O         0.167719449388317    0.542719793952415    0.803985743559403  0.0000
  O      O         0.100527492545065    0.767965499729327    0.522061691540581  0.0000
  O      O         0.879513370681024    0.767965761153582    0.508921249419773  0.0000
  O      O         0.600524009536435    0.017966894350363    0.522055762785616  0.0000
  O      O         0.379510770290035    0.017965749633048    0.508916141554353  0.0000
  O      O         0.258781610456186    0.785805087124436    0.566580106546458  0.0000
  O      O         0.721259131979570    0.785808892597630    0.964369530507878  0.0000
  O      O         0.758785211767568    0.535810082758316    0.566578676834171  0.0000
  O      O         0.221262637567674    0.535803839392593    0.964368361862911  0.0000
  O      O         0.056796697054257    0.857411984434908    0.803075084338233  0.0000
  O      O         0.923243808489934    0.857408720110328    0.727904648920785  0.0000
  O      O         0.556798469447067    0.607410861937684    0.803063284200564  0.0000
  O      O         0.423245567343332    0.607409742151331    0.727892845245667  0.0000
  O      O         0.238166428578317    0.916102878361574    0.524382936928990  0.0000
  O      O         0.741865790261171    0.916086829301420    0.006608334439191  0.0000
  O      O         0.738169459543940    0.666100808720503    0.524369620519974  0.0000
  O      O         0.241868942955918    0.666088981744432    0.006594821312643  0.0000
  O      O         0.990019951922680    0.796540966183512    0.765491384514589  0.0000
  O      O         0.490021428550974    0.546540926401625    0.765479163935114  0.0000
  O      O         0.872840402407607    0.910246845094441    0.961707898986215  0.0000
  O      O         0.107192818852320    0.910248901771148    0.569281674967749  0.0000
  O      O         0.372844791022057    0.660247578548562    0.961692693710404  0.0000
  O      O         0.607197141753094    0.660248118765935    0.569266560111278  0.0000
  O      O         0.831432082014978    0.657177514688292    0.794223594371129  0.0000
  O      O         0.148611579399829    0.657180230518150    0.736737418030444  0.0000
  O      O         0.331425539380962    0.907180115194688    0.794238807670943  0.0000
  O      O         0.648605259413495    0.907177549211030    0.736752331416576  0.0000
  O      O         0.990019059204052    0.631429874783988    0.515479777181253  0.0000
  O      O         0.490019999999959    0.881430000000023    0.515494999999987  0.0000
