data_ReferenceDataBase/8049967_122
_audit_creation_method             Generated by GULP
_audit_author_name                 Salvador R. G. Balestra
_symmetry_space_group_name_H-M     'P 1             '
_symmetry_Int_Tables_number        1

loop_
_symmetry_equiv_pos_site_id
_symmetry_equiv_pos_as_xyz
   1     +x,+y,+z                
_cell_length_a                       26.1448
_cell_length_b                       17.0575
_cell_length_c                       19.6528
_cell_angle_alpha                   90.0000
_cell_angle_beta                    26.6499
_cell_angle_gamma                   90.0000

loop_
_atom_site_label
_atom_site_type_symbol
_atom_site_fract_x
_atom_site_fract_y
_atom_site_fract_z
_atom_site_charge
  Si     Si        0.214007000000038    0.229410400000006    0.356622099999981  0.0000
  Si     Si        0.766038099999946    0.229416300000025    0.174331599999960  0.0000
  Si     Si        0.714002800000003    0.479410499999972    0.356626300000016  0.0000
  Si     Si        0.266033799999946    0.479416099999980    0.174335899999960  0.0000
  Si     Si        0.193030700000008    0.368032800000037    0.142729600000052  0.0000
  Si     Si        0.787007000000017    0.368030299999987    0.388228899999945  0.0000
  Si     Si        0.693030199999953    0.118029200000024    0.142737499999953  0.0000
  Si     Si        0.287006399999996    0.118034100000045    0.388236900000038  0.0000
  Si     Si        0.948976900000048    0.333318800000029    0.386129900000014  0.0000
  Si     Si        0.031064600000036    0.333319400000050    0.144816500000047  0.0000
  Si     Si        0.448974399999997    0.083319100000040    0.386142999999947  0.0000
  Si     Si        0.531062099999986    0.083319200000005    0.144829699999946  0.0000
  Si     Si        0.724126999999953    0.192406399999982    0.463258900000028  0.0000
  Si     Si        0.255911699999956    0.192409900000030    0.067713099999992  0.0000
  Si     Si        0.224131299999954    0.442405000000008    0.463244199999963  0.0000
  Si     Si        0.755915899999991    0.442411200000038    0.067698500000006  0.0000
  Si     Si        0.122909199999981    0.130107100000032    0.344494599999962  0.0000
  Si     Si        0.857129999999984    0.130115499999988    0.186470200000031  0.0000
  Si     Si        0.622911100000010    0.380114499999991    0.344485800000029  0.0000
  Si     Si        0.357131699999968    0.380108100000029    0.186461399999985  0.0000
  O      O         0.259722099999976    0.163288400000056    0.352271800000040  0.0000
  O      O         0.720314199999962    0.163285800000040    0.178702499999986  0.0000
  O      O         0.759712300000047    0.413273600000025    0.352271200000018  0.0000
  O      O         0.220304199999987    0.413300599999957    0.178702100000010  0.0000
  O      O         0.187244999999962    0.191012600000022    0.316444299999944  0.0000
  O      O         0.792814399999997    0.191030899999987    0.214496000000054  0.0000
  O      O         0.687228900000036    0.441029400000048    0.316457000000014  0.0000
  O      O         0.292797999999948    0.441013999999996    0.214508900000055  0.0000
  O      O         0.312331900000004    0.292708400000038    0.226966899999979  0.0000
  O      O         0.667717199999970    0.292717799999991    0.303980199999955  0.0000
  O      O         0.812320799999952    0.042719700000021    0.226979199999960  0.0000
  O      O         0.167705999999953    0.042706500000008    0.303992699999981  0.0000
  O      O         0.100526299999956    0.267966500000057    0.022043599999961  0.0000
  O      O         0.879512999999974    0.267966099999967    0.008903899999950  0.0000
  O      O         0.600529700000038    0.517965099999969    0.022049300000049  0.0000
  O      O         0.379515599999991    0.517966200000046    0.008908900000051  0.0000
  O      O         0.258780900000033    0.285808900000006    0.066595699999993  0.0000
  O      O         0.721258400000011    0.285804999999982    0.464384999999993  0.0000
  O      O         0.758777300000020    0.035803800000053    0.066597000000002  0.0000
  O      O         0.221254799999997    0.035810200000014    0.464386500000046  0.0000
  O      O         0.056796200000008    0.357408699999951    0.303060699999946  0.0000
  O      O         0.923243299999967    0.357411899999988    0.227890200000047  0.0000
  O      O         0.556794500000024    0.107409800000028    0.303072300000053  0.0000
  O      O         0.423241500000017    0.107410899999991    0.227901900000006  0.0000
  O      O         0.238174100000037    0.416086899999982    0.024357099999975  0.0000
  O      O         0.741873499999997    0.416102700000010    0.506582399999957  0.0000
  O      O         0.738171200000011    0.166088899999977    0.024370200000021  0.0000
  O      O         0.241870500000005    0.166100899999947    0.506595599999969  0.0000
  O      O         0.990020100000038    0.296540899999968    0.265473799999995  0.0000
  O      O         0.490018599999985    0.046540899999968    0.265485900000044  0.0000
  O      O         0.872847099999944    0.410248799999977    0.461683600000015  0.0000
  O      O         0.107199499999979    0.410246899999947    0.069257500000049  0.0000
  O      O         0.372842900000023    0.160248099999990    0.461698599999977  0.0000
  O      O         0.607195299999944    0.160247499999969    0.069272400000045  0.0000
  O      O         0.831428500000015    0.157180100000005    0.294227699999965  0.0000
  O      O         0.148607999999967    0.157177499999989    0.236741400000028  0.0000
  O      O         0.331434700000045    0.407177499999989    0.294213000000013  0.0000
  O      O         0.648614199999997    0.407180199999971    0.236726800000042  0.0000
  O      O         0.990020999999956    0.131430000000023    0.015485300000023  0.0000
  O      O         0.490020100000038    0.381429899999944    0.015470499999992  0.0000
  Si     Si        0.214006799999993    0.229410600000051    0.856622199999947  0.0000
  Si     Si        0.766037800000049    0.229416099999980    0.674331800000004  0.0000
  Si     Si        0.714003100000014    0.479410400000006    0.856626200000051  0.0000
  Si     Si        0.266034200000036    0.479416300000025    0.674335700000029  0.0000
  Si     Si        0.193031000000019    0.368033100000048    0.642729199999962  0.0000
  Si     Si        0.787007300000027    0.368030100000055    0.888228600000048  0.0000
  Si     Si        0.693029900000056    0.118028900000013    0.642737900000043  0.0000
  Si     Si        0.287006099999985    0.118034299999977    0.888237200000049  0.0000
  Si     Si        0.948977099999979    0.333319299999971    0.886130200000025  0.0000
  Si     Si        0.031064799999967    0.333318999999960    0.644816799999944  0.0000
  Si     Si        0.448974199999952    0.083318599999984    0.886142800000016  0.0000
  Si     Si        0.531061900000054    0.083319599999982    0.644829400000049  0.0000
  Si     Si        0.724126999999953    0.192406399999982    0.963258900000028  0.0000
  Si     Si        0.255911599999990    0.192409900000030    0.567713099999992  0.0000
  Si     Si        0.224131299999954    0.442405000000008    0.963244300000042  0.0000
  Si     Si        0.755915999999957    0.442411300000003    0.567698400000040  0.0000
  Si     Si        0.122909299999947    0.130106999999953    0.844494499999996  0.0000
  Si     Si        0.857129900000018    0.130115599999954    0.686470200000031  0.0000
  Si     Si        0.622911000000045    0.380114599999956    0.844485899999995  0.0000
  Si     Si        0.357131800000047    0.380108100000029    0.686461499999950  0.0000
  O      O         0.259720700000003    0.163288500000021    0.852273500000024  0.0000
  O      O         0.720312700000022    0.163285599999995    0.678704400000015  0.0000
  O      O         0.759713600000055    0.413273499999946    0.852269500000034  0.0000
  O      O         0.220305700000040    0.413300800000002    0.678700199999980  0.0000
  O      O         0.187245400000052    0.191012600000022    0.816443599999957  0.0000
  O      O         0.792814600000042    0.191030899999987    0.714495499999998  0.0000
  O      O         0.687228600000026    0.441029500000013    0.816457600000035  0.0000
  O      O         0.292797800000017    0.441013999999996    0.714509399999997  0.0000
  O      O         0.312332200000014    0.292708299999958    0.726966599999969  0.0000
  O      O         0.667717400000015    0.292717899999957    0.803980000000024  0.0000
  O      O         0.812320399999976    0.042719799999986    0.726979600000050  0.0000
  O      O         0.167705800000022    0.042706400000043    0.803992900000026  0.0000
  O      O         0.100526599999966    0.267965900000036    0.522044000000051  0.0000
  O      O         0.879512500000033    0.267965399999980    0.508903499999974  0.0000
  O      O         0.600529299999948    0.517965699999991    0.522049000000038  0.0000
  O      O         0.379516100000046    0.517966900000033    0.508909199999948  0.0000
  O      O         0.258780399999978    0.285808900000006    0.566596200000049  0.0000
  O      O         0.721257899999955    0.285804999999982    0.964385399999969  0.0000
  O      O         0.758777799999962    0.035803800000053    0.566596399999980  0.0000
  O      O         0.221255199999973    0.035810100000049    0.964385999999990  0.0000
  O      O         0.056796299999974    0.357409699999948    0.803060800000026  0.0000
  O      O         0.923243500000012    0.357410999999956    0.727890300000013  0.0000
  O      O         0.556794200000013    0.107408800000030    0.803072199999974  0.0000
  O      O         0.423241299999972    0.107411800000023    0.727901800000041  0.0000
  O      O         0.238174500000014    0.416086899999982    0.524356499999953  0.0000
  O      O         0.741873899999973    0.416102700000010    0.006581900000015  0.0000
  O      O         0.738170699999955    0.166088899999977    0.524370800000042  0.0000
  O      O         0.241870199999994    0.166100899999947    0.006595999999945  0.0000
  O      O         0.990020500000014    0.296541000000047    0.765474100000006  0.0000
  O      O         0.490018299999974    0.046540899999968    0.765485600000034  0.0000
  O      O         0.872847099999944    0.410249099999987    0.961683799999946  0.0000
  O      O         0.107199499999979    0.410246700000016    0.569257600000014  0.0000
  O      O         0.372842900000023    0.160247899999945    0.961698400000046  0.0000
  O      O         0.607195299999944    0.160247799999979    0.569272299999966  0.0000
  O      O         0.831428500000015    0.157180400000016    0.794227599999999  0.0000
  O      O         0.148607999999967    0.157177299999944    0.736741400000028  0.0000
  O      O         0.331434700000045    0.407177400000023    0.794213199999945  0.0000
  O      O         0.648614199999997    0.407180400000016    0.736726900000008  0.0000
  O      O         0.990020899999990    0.131429799999978    0.515485300000023  0.0000
  O      O         0.490020100000038    0.381430000000023    0.515470499999992  0.0000
  Si     Si        0.214002199999982    0.729416099999980    0.356633500000044  0.0000
  Si     Si        0.766033300000004    0.729410499999972    0.174342900000056  0.0000
  Si     Si        0.714006000000040    0.979416300000025    0.356629300000009  0.0000
  Si     Si        0.266036999999983    0.979410400000006    0.174338899999952  0.0000
  Si     Si        0.193032700000003    0.868030100000055    0.142736700000000  0.0000
  Si     Si        0.787008900000046    0.868033100000048    0.388236000000006  0.0000
  Si     Si        0.693033900000046    0.618034299999977    0.142727899999954  0.0000
  Si     Si        0.287010099999975    0.618028900000013    0.388227300000040  0.0000
  Si     Si        0.948975199999950    0.833318899999995    0.386148499999990  0.0000
  Si     Si        0.031062900000052    0.833319200000005    0.144835100000023  0.0000
  Si     Si        0.448978200000056    0.583319699999947    0.386135599999989  0.0000
  Si     Si        0.531065799999965    0.583318599999984    0.144822299999987  0.0000
  Si     Si        0.724128400000041    0.692409900000030    0.463252000000011  0.0000
  Si     Si        0.255913100000043    0.692406499999947    0.067706199999975  0.0000
  Si     Si        0.224123899999995    0.942411300000003    0.463266800000042  0.0000
  Si     Si        0.755908599999998    0.942405000000008    0.067721099999972  0.0000
  Si     Si        0.122910100000013    0.630115700000033    0.344495000000052  0.0000
  Si     Si        0.857130800000050    0.630106999999953    0.186470600000007  0.0000
  Si     Si        0.622908299999949    0.880107999999950    0.344503700000018  0.0000
  Si     Si        0.357128900000021    0.880114599999956    0.186479400000053  0.0000
  O      O         0.259727300000009    0.663285699999960    0.352260900000033  0.0000
  O      O         0.720319499999960    0.663288500000021    0.178691400000048  0.0000
  O      O         0.759734399999957    0.913300899999967    0.352264999999989  0.0000
  O      O         0.220326300000011    0.913273499999946    0.178695800000014  0.0000
  O      O         0.187225399999988    0.691030999999953    0.316469800000050  0.0000
  O      O         0.792794699999945    0.691012500000056    0.214521399999967  0.0000
  O      O         0.687242599999990    0.941013799999951    0.316455300000030  0.0000
  O      O         0.292811600000050    0.941029500000013    0.214507400000002  0.0000
  O      O         0.312322600000016    0.792717899999957    0.226985199999945  0.0000
  O      O         0.667707800000017    0.792708199999993    0.303998500000034  0.0000
  O      O         0.812334299999975    0.542706400000043    0.226972300000057  0.0000
  O      O         0.167719600000055    0.542719899999952    0.303985600000033  0.0000
  O      O         0.100527199999988    0.767966200000046    0.022061200000053  0.0000
  O      O         0.879513900000006    0.767966500000057    0.008921600000008  0.0000
  O      O         0.600524400000040    0.017966200000046    0.022056300000031  0.0000
  O      O         0.379510299999993    0.017965000000004    0.008915799999954  0.0000
  O      O         0.258782099999962    0.785805099999948    0.066579599999955  0.0000
  O      O         0.721259499999974    0.785808900000006    0.464369099999999  0.0000
  O      O         0.758784699999978    0.535810100000049    0.066579199999978  0.0000
  O      O         0.221262199999956    0.535803900000019    0.464368700000023  0.0000
  O      O         0.056796500000019    0.857410999999956    0.303075000000035  0.0000
  O      O         0.923243599999978    0.857409500000017    0.227904500000022  0.0000
  O      O         0.556798599999979    0.607411899999988    0.303063400000042  0.0000
  O      O         0.423245800000018    0.607408899999996    0.227892999999995  0.0000
  O      O         0.238165900000013    0.916102799999976    0.024383599999965  0.0000
  O      O         0.741865500000017    0.916086800000016    0.506608799999981  0.0000
  O      O         0.738169900000003    0.666100899999947    0.024368999999979  0.0000
  O      O         0.241869299999962    0.666088899999977    0.506594400000040  0.0000
  O      O         0.990019599999982    0.796540899999968    0.265491200000042  0.0000
  O      O         0.490021800000022    0.546541000000047    0.265479400000004  0.0000
  O      O         0.872840500000052    0.910246600000050    0.461707799999999  0.0000
  O      O         0.107192700000041    0.910249199999953    0.069281799999999  0.0000
  O      O         0.372844699999973    0.660247899999945    0.461692900000003  0.0000
  O      O         0.607197199999973    0.660247899999945    0.069266599999992  0.0000
  O      O         0.831431999999950    0.657177299999944    0.294223800000054  0.0000
  O      O         0.148611599999981    0.657180400000016    0.236737500000004  0.0000
  O      O         0.331425699999954    0.907180400000016    0.294238400000040  0.0000
  O      O         0.648605200000020    0.907177400000023    0.236752300000035  0.0000
  O      O         0.990019100000040    0.631429899999944    0.015479799999980  0.0000
  O      O         0.490019899999993    0.881429899999944    0.015494900000022  0.0000
  Si     Si        0.214002000000050    0.729416300000025    0.856633500000044  0.0000
  Si     Si        0.766032900000027    0.729410400000006    0.674343199999953  0.0000
  Si     Si        0.714006199999972    0.979416099999980    0.856629300000009  0.0000
  Si     Si        0.266037299999994    0.979410600000051    0.674338799999987  0.0000
  Si     Si        0.193033000000014    0.868030399999952    0.642736300000024  0.0000
  Si     Si        0.787009300000022    0.868032900000003    0.888235699999996  0.0000
  Si     Si        0.693033600000035    0.618034100000045    0.642728300000044  0.0000
  Si     Si        0.287009799999964    0.618029200000024    0.888227600000050  0.0000
  Si     Si        0.948975399999995    0.833319400000050    0.886148700000035  0.0000
  Si     Si        0.031063099999983    0.833318800000029    0.644835400000034  0.0000
  Si     Si        0.448978000000011    0.583319200000005    0.886135399999944  0.0000
  Si     Si        0.531065600000034    0.583318999999960    0.644822100000056  0.0000
  Si     Si        0.724128400000041    0.692409900000030    0.963251900000046  0.0000
  Si     Si        0.255912999999964    0.692406499999947    0.567706199999975  0.0000
  Si     Si        0.224123899999995    0.942411300000003    0.963266999999973  0.0000
  Si     Si        0.755908699999964    0.942405000000008    0.567721099999972  0.0000
  Si     Si        0.122910100000013    0.630115599999954    0.844494899999972  0.0000
  Si     Si        0.857130800000050    0.630106999999953    0.686470600000007  0.0000
  Si     Si        0.622908199999983    0.880108100000029    0.844503799999984  0.0000
  Si     Si        0.357128999999986    0.880114599999956    0.686479500000019  0.0000
  O      O         0.259725900000035    0.663285699999960    0.852262600000017  0.0000
  O      O         0.720317900000055    0.663288400000056    0.678693400000043  0.0000
  O      O         0.759735800000044    0.913300700000036    0.852263200000039  0.0000
  O      O         0.220327799999950    0.913273600000025    0.678693999999950  0.0000
  O      O         0.187225600000033    0.691030999999953    0.816469200000029  0.0000
  O      O         0.792794800000024    0.691012399999977    0.714521099999956  0.0000
  O      O         0.687242100000049    0.941013900000030    0.816456199999948  0.0000
  O      O         0.292811400000005    0.941029500000013    0.714508000000023  0.0000
  O      O         0.312322999999992    0.792717799999991    0.726984799999968  0.0000
  O      O         0.667707999999948    0.792708299999958    0.803998399999955  0.0000
  O      O         0.812334100000044    0.542706400000043    0.726972499999988  0.0000
  O      O         0.167719499999976    0.542719799999986    0.803985699999998  0.0000
  O      O         0.100527499999998    0.767965499999946    0.522061699999995  0.0000
  O      O         0.879513399999951    0.767965699999991    0.508921299999997  0.0000
  O      O         0.600523999999950    0.017966900000033    0.522055700000010  0.0000
  O      O         0.379510800000048    0.017965699999991    0.508916099999965  0.0000
  O      O         0.258781600000020    0.785805099999948    0.566580100000010  0.0000
  O      O         0.721259099999997    0.785808900000006    0.964369499999975  0.0000
  O      O         0.758785200000034    0.535810100000049    0.566578700000036  0.0000
  O      O         0.221262600000045    0.535803900000019    0.964368300000046  0.0000
  O      O         0.056796699999950    0.857411999999954    0.803075100000001  0.0000
  O      O         0.923243800000023    0.857408699999951    0.727904699999954  0.0000
  O      O         0.556798500000014    0.607410800000025    0.803063299999963  0.0000
  O      O         0.423245599999973    0.607409699999948    0.727892799999950  0.0000
  O      O         0.238166399999955    0.916102900000055    0.524382899999978  0.0000
  O      O         0.741865800000028    0.916086899999982    0.006608300000039  0.0000
  O      O         0.738169399999947    0.666100799999981    0.524369600000000  0.0000
  O      O         0.241868899999986    0.666089000000056    0.006594800000016  0.0000
  O      O         0.990019999999959    0.796541000000047    0.765491399999974  0.0000
  O      O         0.490021400000046    0.546540899999968    0.765479099999993  0.0000
  O      O         0.872840399999973    0.910246799999982    0.961707899999965  0.0000
  O      O         0.107192800000007    0.910248900000056    0.569281700000033  0.0000
  O      O         0.372844800000053    0.660247600000048    0.961692699999958  0.0000
  O      O         0.607197199999973    0.660248099999990    0.569266599999992  0.0000
  O      O         0.831432100000029    0.657177499999989    0.794223600000009  0.0000
  O      O         0.148611599999981    0.657180199999971    0.736737400000038  0.0000
  O      O         0.331425500000023    0.907180100000005    0.794238800000016  0.0000
  O      O         0.648605299999986    0.907177599999955    0.736752300000035  0.0000
  O      O         0.990019100000040    0.631429899999944    0.515479799999980  0.0000
  O      O         0.490019999999959    0.881430000000023    0.515494999999987  0.0000
