data_ReferenceDataBase/8078629_111
_audit_creation_method             Generated by GULP
_audit_author_name                 Salvador R. G. Balestra
_symmetry_space_group_name_H-M     'P 1             '
_symmetry_Int_Tables_number        1

loop_
_symmetry_equiv_pos_site_id
_symmetry_equiv_pos_as_xyz
   1     +x,+y,+z                
_cell_length_a                       13.2880
_cell_length_b                       13.2880
_cell_length_c                       13.2880
_cell_angle_alpha                   75.8531
_cell_angle_beta                    75.8531
_cell_angle_gamma                   75.8531

loop_
_atom_site_label
_atom_site_type_symbol
_atom_site_fract_x
_atom_site_fract_y
_atom_site_fract_z
_atom_site_charge
  Si     Si        0.354761299999950    0.887826700000005    0.546513900000036  0.0000
  Si     Si        0.116254099999992    0.311581100000012    0.495559699999944  0.0000
  O      O         0.281498899999974    0.004929299999958    0.533520500000009  0.0000
  O      O         0.406406199999992    0.860103399999957    0.650038500000051  0.0000
  O      O         0.288130000000024    0.800025799999958    0.551334300000008  0.0000
  Si     Si        0.498184199999969    0.699559300000033    0.303183999999987  0.0000
  O      O         0.447728800000050    0.888653900000008    0.446043300000042  0.0000
  O      O         0.584866600000055    0.592926899999952    0.312859699999990  0.0000
  O      O         0.193924700000025    0.201985000000036    0.478259200000025  0.0000
  O      O         0.129559800000038    0.396201700000006    0.386455899999987  0.0000
  Si     Si        0.548199400000044    0.362821599999961    0.878080999999952  0.0000
  Si     Si        0.497245099999986    0.124314400000003    0.301835299999993  0.0000
  O      O         0.535205900000051    0.289559199999985    0.995183600000018  0.0000
  O      O         0.651723899999979    0.414466500000003    0.850357700000018  0.0000
  O      O         0.553019700000050    0.296190300000035    0.790280000000052  0.0000
  Si     Si        0.304869400000030    0.506244499999980    0.689813500000014  0.0000
  O      O         0.447728800000050    0.455789099999947    0.878908099999990  0.0000
  O      O         0.314545100000032    0.592926899999952    0.583181100000047  0.0000
  O      O         0.479944599999953    0.201985000000036    0.192239200000017  0.0000
  O      O         0.388141399999995    0.137620200000015    0.386455899999987  0.0000
  Si     Si        0.879766499999960    0.556259599999976    0.353075900000022  0.0000
  Si     Si        0.303520800000001    0.505305499999963    0.114568599999984  0.0000
  O      O         0.996868999999947    0.543266199999948    0.279813399999966  0.0000
  O      O         0.852043099999946    0.659784199999990    0.404720799999950  0.0000
  O      O         0.791965499999947    0.561079999999947    0.286444500000016  0.0000
  Si     Si        0.691498900000056    0.312929700000041    0.496498699999961  0.0000
  O      O         0.880593599999997    0.455789099999947    0.446043300000042  0.0000
  O      O         0.584866499999976    0.322605400000043    0.583181100000047  0.0000
  O      O         0.193924700000025    0.488005000000044    0.192239200000017  0.0000
  O      O         0.388141399999995    0.396201700000006    0.127874399999996  0.0000
  Si     Si        0.116601899999978    0.649667399999998    0.446483599999965  0.0000
  Si     Si        0.692847600000050    0.888174599999957    0.497437799999943  0.0000
  O      O         0.999499399999991    0.722929799999974    0.459476999999993  0.0000
  O      O         0.144325299999991    0.598022499999956    0.342958999999951  0.0000
  O      O         0.204402899999991    0.716298700000038    0.441663299999959  0.0000
  O      O         0.115774800000054    0.556699900000012    0.546954199999959  0.0000
  O      O         0.411501899999962    0.419562199999973    0.680137800000011  0.0000
  O      O         0.802443700000026    0.810504000000037    0.514738299999976  0.0000
  O      O         0.608227000000056    0.874868900000024    0.606541600000014  0.0000
  Si     Si        0.448169099999973    0.124662299999954    0.639921599999980  0.0000
  Si     Si        0.499123299999951    0.700907899999947    0.878428800000052  0.0000
  O      O         0.461162500000000    0.007559700000002    0.713184100000035  0.0000
  O      O         0.344644499999958    0.152385600000002    0.588276700000051  0.0000
  O      O         0.443348700000001    0.212463200000002    0.706552900000020  0.0000
  O      O         0.548639600000001    0.123835200000030    0.546954199999959  0.0000
  O      O         0.681823300000019    0.419562199999973    0.409816399999954  0.0000
  O      O         0.516423799999984    0.810504000000037    0.800758200000018  0.0000
  O      O         0.608227000000056    0.616287299999954    0.865123100000005  0.0000
  Si     Si        0.641607099999987    0.456229399999984    0.114916500000049  0.0000
  Si     Si        0.880114299999946    0.507183599999962    0.691162200000008  0.0000
  O      O         0.714869600000043    0.469222800000011    0.997813899999983  0.0000
  O      O         0.589962199999945    0.352704799999970    0.142639799999984  0.0000
  O      O         0.708238400000027    0.451409000000012    0.202717499999949  0.0000
  O      O         0.548639600000001    0.556699900000012    0.114089400000012  0.0000
  O      O         0.411501899999962    0.689883600000030    0.409816399999954  0.0000
  O      O         0.802443700000026    0.524484000000029    0.800758200000018  0.0000
  O      O         0.866808600000013    0.616287400000033    0.606541600000014  0.0000
  Si     Si        0.641607099999987    0.124662299999954    0.446483599999965  0.0000
  Si     Si        0.880114299999946    0.700907899999947    0.497437799999943  0.0000
  O      O         0.714869600000043    0.007559700000002    0.459476999999993  0.0000
  O      O         0.589962199999945    0.152385600000002    0.342958999999951  0.0000
  O      O         0.708238400000027    0.212463200000002    0.441663199999994  0.0000
  Si     Si        0.498184199999969    0.312929700000041    0.689813500000014  0.0000
  Si     Si        0.448169099999973    0.649667399999998    0.114916500000049  0.0000
  Si     Si        0.499123299999951    0.888174599999957    0.691162200000008  0.0000
  O      O         0.461162500000000    0.722929799999974    0.997813899999983  0.0000
  O      O         0.344644499999958    0.598022499999956    0.142639799999984  0.0000
  O      O         0.443348700000001    0.716298700000038    0.202717499999949  0.0000
  Si     Si        0.691498900000056    0.506244499999980    0.303183999999987  0.0000
  Si     Si        0.116601899999978    0.456229399999984    0.639921599999980  0.0000
  Si     Si        0.692847600000050    0.507183599999962    0.878428900000017  0.0000
  O      O         0.999499399999991    0.469222800000011    0.713184100000035  0.0000
  O      O         0.144325299999991    0.352704799999970    0.588276700000051  0.0000
  O      O         0.204402899999991    0.451409000000012    0.706552900000020  0.0000
  Si     Si        0.304869400000030    0.699559300000033    0.496498699999961  0.0000
  Si     Si        0.879766499999960    0.362821599999961    0.546513900000036  0.0000
  Si     Si        0.303520800000001    0.124314400000003    0.495559699999944  0.0000
  O      O         0.996868999999947    0.289559199999985    0.533520500000009  0.0000
  O      O         0.852043099999946    0.414466500000003    0.650038399999971  0.0000
  O      O         0.791965499999947    0.296190300000035    0.551334200000042  0.0000
  Si     Si        0.548199400000044    0.887826700000005    0.353075900000022  0.0000
  Si     Si        0.497245099999986    0.311581100000012    0.114568599999984  0.0000
  O      O         0.535205900000051    0.004929299999958    0.279813399999966  0.0000
  O      O         0.651723899999979    0.860103399999957    0.404720799999950  0.0000
  O      O         0.553019700000050    0.800025799999958    0.286444500000016  0.0000
  Si     Si        0.354761299999950    0.556259700000055    0.878080999999952  0.0000
  Si     Si        0.116254099999992    0.505305399999997    0.301835299999993  0.0000
  O      O         0.281498899999974    0.543266199999948    0.995183500000053  0.0000
  O      O         0.406406199999992    0.659784299999956    0.850357700000018  0.0000
  O      O         0.288130000000024    0.561079999999947    0.790280000000052  0.0000
