data_ReferenceDataBase/8078629_111
_audit_creation_method             Generated by GULP
_audit_author_name                 Salvador R. G. Balestra
_symmetry_space_group_name_H-M     'P 1             '
_symmetry_Int_Tables_number        1

loop_
_symmetry_equiv_pos_site_id
_symmetry_equiv_pos_as_xyz
   1     +x,+y,+z                
_cell_length_a                       13.2880
_cell_length_b                       13.2880
_cell_length_c                       13.2880
_cell_angle_alpha                   75.8531
_cell_angle_beta                    75.8531
_cell_angle_gamma                   75.8531

loop_
_atom_site_label
_atom_site_type_symbol
_atom_site_fract_x
_atom_site_fract_y
_atom_site_fract_z
_atom_site_charge
  Si     Si        0.354761310670487    0.887826754515138    0.546513893072983  0.0000
  Si     Si        0.116254094795491    0.311581089410351    0.495559668853924  0.0000
  O      O         0.281498868060457    0.004929318071463    0.533520464477191  0.0000
  O      O         0.406406214325234    0.860103401656449    0.650038458654909  0.0000
  O      O         0.288129999736207    0.800025766999136    0.551334234209796  0.0000
  Si     Si        0.498184199521686    0.699559271578348    0.303183977933061  0.0000
  O      O         0.447728796995153    0.888653864383673    0.446043339539985  0.0000
  O      O         0.584866553586416    0.592926870164064    0.312859652517321  0.0000
  O      O         0.193924676152663    0.201984984796379    0.478259193178355  0.0000
  O      O         0.129559830309721    0.396201665209362    0.386455897928645  0.0000
  Si     Si        0.548199347156259    0.362821618180971    0.878080997090203  0.0000
  Si     Si        0.497245119246463    0.124314409621228    0.301835327543292  0.0000
  O      O         0.535205886514940    0.289559183956037    0.995183562902524  0.0000
  O      O         0.651723934158319    0.414466489460890    0.850357662968154  0.0000
  O      O         0.553019684847723    0.296190299262162    0.790280019107730  0.0000
  Si     Si        0.304869450193436    0.506244505093589    0.689813490871250  0.0000
  O      O         0.447728821637023    0.455789131518648    0.878908073514231  0.0000
  O      O         0.314545134593020    0.592926842572194    0.583181074818409  0.0000
  O      O         0.479944628909998    0.201984998769988    0.192239230846872  0.0000
  O      O         0.388141366703989    0.137620156368048    0.386455921977122  0.0000
  Si     Si        0.879766451898065    0.556259656754155    0.353075849981780  0.0000
  Si     Si        0.303520777092300    0.505305445620572    0.114568632250403  0.0000
  O      O         0.996869016537870    0.543266259844562    0.279813406862754  0.0000
  O      O         0.852043071187786    0.659784211264273    0.404720774146053  0.0000
  O      O         0.791965472523140    0.561079989243088    0.286444533724699  0.0000
  Si     Si        0.691498950855653    0.312929757578720    0.496498744040673  0.0000
  O      O         0.880593593013705    0.455789084363896    0.446043315480576  0.0000
  O      O         0.584866552949241    0.322605420179382    0.583181101787144  0.0000
  O      O         0.193924676773055    0.488004959091692    0.192239217159014  0.0000
  O      O         0.388141373908901    0.396201696196832    0.127874403009347  0.0000
  Si     Si        0.116601947509683    0.649667397868048    0.446483593560530  0.0000
  Si     Si        0.692847622544656    0.888174617707226    0.497437804048411  0.0000
  O      O         0.999499383674321    0.722929842983525    0.459476987707595  0.0000
  O      O         0.144325329735086    0.598022472620765    0.342959039354304  0.0000
  O      O         0.204402927814015    0.716298713970791    0.441663259533410  0.0000
  O      O         0.115774803486520    0.556699935065176    0.546954167628770  0.0000
  O      O         0.411501846273153    0.419562146069374    0.680137829924127  0.0000
  O      O         0.802443723265172    0.810504032576820    0.514738288688968  0.0000
  O      O         0.608227032892246    0.874868861096032    0.606541559828751  0.0000
  Si     Si        0.448169054291747    0.124662251281463    0.639921632882160  0.0000
  Si     Si        0.499123277180684    0.700907922418301    0.878428839999362  0.0000
  O      O         0.461162490907825    0.007559685439415    0.713184069047112  0.0000
  O      O         0.344644480097186    0.152385601641575    0.588276740642079  0.0000
  O      O         0.443348715870611    0.212463229699388    0.706552951588644  0.0000
  O      O         0.548639601998315    0.123835152472568    0.546954142225545  0.0000
  O      O         0.681823266195995    0.419562174210046    0.409816406339357  0.0000
  O      O         0.516423771309037    0.810504018553647    0.800758250922470  0.0000
  O      O         0.608227022610591    0.616287319296691    0.865123080038158  0.0000
  Si     Si        0.641607088734034    0.456229355413348    0.114916494889423  0.0000
  Si     Si        0.880114304099138    0.507183581932930    0.691162160127431  0.0000
  O      O         0.714869529348622    0.469222806842252    0.997813931515204  0.0000
  O      O         0.589962203575441    0.352704779214882    0.142639831552754  0.0000
  O      O         0.708238398418267    0.451409015904032    0.202717482410460  0.0000
  O      O         0.548639582047930    0.556699890008659    0.114089403922879  0.0000
  O      O         0.411501846798450    0.689883597164417    0.409816380213460  0.0000
  O      O         0.802443721550379    0.524484060264715    0.800758263115214  0.0000
  O      O         0.866808570787244    0.616287351863313    0.606541582336969  0.0000
  Si     Si        0.641607088678231    0.124662262752131    0.446483588956731  0.0000
  Si     Si        0.880114304931043    0.700907928434590    0.497437811923946  0.0000
  O      O         0.714869531415798    0.007559699290459    0.459477016900076  0.0000
  O      O         0.589962185045352    0.152385616117899    0.342959023075884  0.0000
  O      O         0.708238399661867    0.212463250001034    0.441663248053913  0.0000
  Si     Si        0.498184200798076    0.312929744687334    0.689813504607625  0.0000
  Si     Si        0.448169052471670    0.649667399504823    0.114916484602942  0.0000
  Si     Si        0.499123280555634    0.888174607717870    0.691162154274173  0.0000
  O      O         0.461162509401583    0.722929834737843    0.997813919027995  0.0000
  O      O         0.344644467961610    0.598022524533751    0.142639820459443  0.0000
  O      O         0.443348714667574    0.716298717271578    0.202717463495514  0.0000
  Si     Si        0.691498950358704    0.506244511346233    0.303183990032303  0.0000
  Si     Si        0.116601947190270    0.456229360916021    0.639921631401196  0.0000
  Si     Si        0.692847622312953    0.507183571815992    0.878428849284751  0.0000
  O      O         0.999499382805910    0.469222756113873    0.713184075401740  0.0000
  O      O         0.144325328452983    0.352704807716031    0.588276705570494  0.0000
  O      O         0.204402927423591    0.451409027773776    0.706552946820461  0.0000
  Si     Si        0.304869448711799    0.699559259842465    0.496498737685150  0.0000
  Si     Si        0.879766451467581    0.362821620016506    0.546513888265932  0.0000
  Si     Si        0.303520776899528    0.124314399618024    0.495559677636484  0.0000
  O      O         0.996869015761426    0.289559175838852    0.533520492424195  0.0000
  O      O         0.852043069390197    0.414466544814367    0.650038442763873  0.0000
  O      O         0.791965471907162    0.296190303081074    0.551334222357917  0.0000
  Si     Si        0.548199344898318    0.887826765805186    0.353075849207695  0.0000
  Si     Si        0.497245120339386    0.311581095454265    0.114568641612211  0.0000
  O      O         0.535205908737263    0.004929331652216    0.279813413052213  0.0000
  O      O         0.651723919014587    0.860103415466901    0.404720741682792  0.0000
  O      O         0.553019684060276    0.800025787102416    0.286444530459712  0.0000
  Si     Si        0.354761310812900    0.556259662740713    0.878080985560731  0.0000
  Si     Si        0.116254095317597    0.505305435676750    0.301835321162713  0.0000
  O      O         0.281498871586165    0.543266211553397    0.995183549400799  0.0000
  O      O         0.406406194582636    0.659784239821323    0.850357647758746  0.0000
  O      O         0.288130000000024    0.561079999999947    0.790280000000052  0.0000
