data_ReferenceDataBase/8133379_111
_audit_creation_method             Generated by GULP
_audit_author_name                 Salvador R. G. Balestra
_symmetry_space_group_name_H-M     'P 1             '
_symmetry_Int_Tables_number        1

loop_
_symmetry_equiv_pos_site_id
_symmetry_equiv_pos_as_xyz
   1     +x,+y,+z                
_cell_length_a                       15.7966
_cell_length_b                       17.1542
_cell_length_c                       12.5494
_cell_angle_alpha                   90.0000
_cell_angle_beta                    54.8415
_cell_angle_gamma                   90.0000

loop_
_atom_site_label
_atom_site_type_symbol
_atom_site_fract_x
_atom_site_fract_y
_atom_site_fract_z
_atom_site_charge
  Si     Si        0.838731199673747    0.018418777906794    0.123580555085083  0.0000
  Si     Si        0.165408797384068    0.018418777830330    0.371259446546460  0.0000
  Si     Si        0.165408797151031    0.977599838571456    0.871259448033455  0.0000
  Si     Si        0.838731200191967    0.977599838621041    0.623580554783215  0.0000
  Si     Si        0.338731200257622    0.518418778365914    0.123580554257089  0.0000
  Si     Si        0.665408796732933    0.518418778444647    0.371259448231945  0.0000
  Si     Si        0.665408796661287    0.477599838220791    0.871259447748041  0.0000
  Si     Si        0.338731200441932    0.477599838134060    0.623580554722877  0.0000
  Si     Si        0.253384871827010    0.372047672812108    0.074575863272724  0.0000
  Si     Si        0.750755125437543    0.372047672924288    0.420264139086599  0.0000
  Si     Si        0.750755125733252    0.623970943706283    0.920264138479217  0.0000
  Si     Si        0.253384871179962    0.623970943573200    0.574575864040932  0.0000
  Si     Si        0.753384870420376    0.872047672373093    0.074575865233520  0.0000
  Si     Si        0.250755125970151    0.872047672292693    0.420264137597738  0.0000
  Si     Si        0.250755125240915    0.123970943725695    0.920264138224896  0.0000
  Si     Si        0.753384872487978    0.123970943793527    0.574575863704936  0.0000
  Si     Si        0.753508124226260    0.641824916436030    0.162057229428269  0.0000
  Si     Si        0.250631872532891    0.641824916305607    0.332782773204606  0.0000
  Si     Si        0.250631874168821    0.354193699058486    0.832782772360118  0.0000
  Si     Si        0.753508123167017    0.354193699168581    0.662057229975850  0.0000
  Si     Si        0.253508122879909    0.141824917831364    0.162057229977807  0.0000
  Si     Si        0.750631874774133    0.141824917914972    0.332782771921623  0.0000
  Si     Si        0.750631873518835    0.854193699843876    0.832782773444462  0.0000
  Si     Si        0.253508123037922    0.854193699752776    0.662057229364474  0.0000
  Si     Si        0.921320538541911    0.264374197209765    0.212281865895677  0.0000
  Si     Si        0.082819458947283    0.264374197084992    0.282558136552447  0.0000
  Si     Si        0.082819459155920    0.731644420655359    0.782558135431282  0.0000
  Si     Si        0.921320537578733    0.731644420737018    0.712281866829151  0.0000
  Si     Si        0.421320537730998    0.764374194373105    0.212281866615563  0.0000
  Si     Si        0.582819458841101    0.764374194404145    0.282558136166303  0.0000
  Si     Si        0.582819459434349    0.231644420413489    0.782558135528925  0.0000
  Si     Si        0.421320538096893    0.231644420430759    0.712281866540176  0.0000
  Si     Si        0.088927838965085    0.229697434735271    0.934641838151786  0.0000
  Si     Si        0.915212158492536    0.229697434783666    0.560198164226833  0.0000
  Si     Si        0.915212157615477    0.766321181950709    0.060198163605895  0.0000
  Si     Si        0.088927839020695    0.766321181903245    0.434641838786098  0.0000
  Si     Si        0.588927839839205    0.729697434617152    0.934641838610795  0.0000
  Si     Si        0.415212156867802    0.729697434512817    0.560198164049138  0.0000
  Si     Si        0.415212157841388    0.266321181989160    0.060198163458927  0.0000
  Si     Si        0.588927839614063    0.266321182073101    0.434641838713902  0.0000
  Si     Si        0.512576753246829    0.406351352512068    0.364792095308153  0.0000
  Si     Si        0.491563243914832    0.406351352479215    0.130047907079868  0.0000
  Si     Si        0.491563243737456    0.589667264318630    0.630047907204556  0.0000
  Si     Si        0.512576753204930    0.589667264348350    0.864792095356396  0.0000
  Si     Si        0.012576752956531    0.906351352388025    0.364792095370687  0.0000
  Si     Si        0.991563244010599    0.906351352412302    0.130047906863149  0.0000
  Si     Si        0.991563245043339    0.089667264070654    0.630047906465243  0.0000
  Si     Si        0.012576752425149    0.089667264068565    0.864792095616136  0.0000
  O      O         0.757327448613529    0.065336072661912    0.255203012152142  0.0000
  O      O         0.246812548977046    0.065336072431002    0.239636989540778  0.0000
  O      O         0.246812548702105    0.930682544681234    0.739636990050823  0.0000
  O      O         0.757327448135498    0.930682544814259    0.755203012629309  0.0000
  O      O         0.257327446431021    0.565336071289084    0.255203012644766  0.0000
  O      O         0.746812550453566    0.565336071401235    0.239636989872313  0.0000
  O      O         0.746812549266820    0.430682544213083    0.739636990282590  0.0000
  O      O         0.257327447926911    0.430682544130095    0.755203012198632  0.0000
  O      O         0.774071568514441    0.959658841872581    0.096927364891243  0.0000
  O      O         0.230068427856275    0.959658841799767    0.397912637941325  0.0000
  O      O         0.230068427954297    0.036359773146933    0.897912641451609  0.0000
  O      O         0.774071569971947    0.036359773270714    0.596927360472393  0.0000
  O      O         0.274071572114968    0.459658842775517    0.096927358180183  0.0000
  O      O         0.730068425022537    0.459658842840264    0.397912644089450  0.0000
  O      O         0.730068425945135    0.536359774064030    0.897912641461147  0.0000
  O      O         0.274071571009471    0.536359773953932    0.596927361168540  0.0000
  O      O         0.915063777351657    0.973975567458451    0.147688115533579  0.0000
  O      O         0.089076220132968    0.973975567378775    0.347151885359692  0.0000
  O      O         0.089076221155644    0.022043051162546    0.847151887242675  0.0000
  O      O         0.915063775810115    0.022043051103705    0.647688116398381  0.0000
  O      O         0.415063776811638    0.473975567320260    0.147688116223762  0.0000
  O      O         0.589076220114509    0.473975567466668    0.347151886347541  0.0000
  O      O         0.589076219610799    0.522043048872991    0.847151886292641  0.0000
  O      O         0.415063777510086    0.522043048771856    0.647688116117926  0.0000
  O      O         0.901862528412605    0.077636204895468    0.002011951066884  0.0000
  O      O         0.102277468282499    0.077636205109319    0.492828050002382  0.0000
  O      O         0.102277467624866    0.918382409761969    0.992828049536820  0.0000
  O      O         0.901862529990545    0.918382409702421    0.502011953528389  0.0000
  O      O         0.401862529737069    0.577636207599999    0.002011953304069  0.0000
  O      O         0.602277467264733    0.577636207646628    0.492828049274066  0.0000
  O      O         0.602277467510541    0.418382409715891    0.992828049656799  0.0000
  O      O         0.401862529617676    0.418382409625921    0.502011952773912  0.0000
  O      O         0.162762138756831    0.336010459543676    0.213878660584200  0.0000
  O      O         0.841377858607666    0.336010459632043    0.280961341824087  0.0000
  O      O         0.841377858745506    0.660008157658061    0.780961341875400  0.0000
  O      O         0.162762138203740    0.660008157648692    0.713878660580377  0.0000
  O      O         0.662762136984357    0.836010457674715    0.213878660628946  0.0000
  O      O         0.341377859446831    0.836010457586754    0.280961342204667  0.0000
  O      O         0.341377857747194    0.160008158227543    0.780961341828294  0.0000
  O      O         0.662762139890695    0.160008158250732    0.713878660121486  0.0000
  O      O         0.356399343383005    0.318592324199832    0.012654420470546  0.0000
  O      O         0.647740653979117    0.318592324256293    0.482185581827664  0.0000
  O      O         0.647740654345544    0.677426292491595    0.982185581631742  0.0000
  O      O         0.356399342551027    0.677426292336116    0.512654420847631  0.0000
  O      O         0.856399342463234    0.818592324249665    0.012654421763443  0.0000
  O      O         0.147740653962330    0.818592324190824    0.482185580929306  0.0000
  O      O         0.147740652038707    0.177426290266552    0.982185580411659  0.0000
  O      O         0.856399345540207    0.177426290445890    0.512654421672866  0.0000
  O      O         0.217403668501308    0.373890611695247    0.977987833811993  0.0000
  O      O         0.786736328654999    0.373890611918922    0.516852168648332  0.0000
  O      O         0.786736328206386    0.622128003688227    0.016852168767049  0.0000
  O      O         0.217403668711659    0.622128003468391    0.477987833756335  0.0000
  O      O         0.717403668738538    0.873890613057469    0.977987834220709  0.0000
  O      O         0.286736327584511    0.873890612955942    0.516852168682777  0.0000
  O      O         0.286736326912577    0.122128005731539    0.016852169194906  0.0000
  O      O         0.717403670947626    0.122128005681871    0.477987832589111  0.0000
  O      O         0.641669084273125    0.682135167473168    0.239538744659318  0.0000
  O      O         0.362470912405648    0.682135167426366    0.255301257934511  0.0000
  O      O         0.362470914350646    0.313883448193642    0.755301259649988  0.0000
  O      O         0.641669083089694    0.313883448187099    0.739538742741226  0.0000
  O      O         0.141669083299316    0.182135169608157    0.239538745168719  0.0000
  O      O         0.862470914316779    0.182135169697879    0.255301256632570  0.0000
  O      O         0.862470912965971    0.813883448018402    0.755301260463913  0.0000
  O      O         0.141669083556485    0.813883448013795    0.739538742659249  0.0000
  O      O         0.839039154113265    0.697882038442509    0.154183363828182  0.0000
  O      O         0.165100842458760    0.697882038213847    0.340656639013768  0.0000
  O      O         0.165100845415874    0.298136576505144    0.840656635944675  0.0000
  O      O         0.839039152167883    0.298136576729855    0.654183366092898  0.0000
  O      O         0.339039153598244    0.197882038934381    0.154183364198115  0.0000
  O      O         0.665100843927238    0.197882039034269    0.340656637978299  0.0000
  O      O         0.665100843524848    0.798136578114609    0.840656638604827  0.0000
  O      O         0.339039153047582    0.798136577953094    0.654183364074956  0.0000
  O      O         0.002069998498215    0.267349693338920    0.247420001625456  0.0000
  O      O         0.002069998818796    0.728668923642529    0.747420000395568  0.0000
  O      O         0.502069998204008    0.767349688790394    0.247420001522121  0.0000
  O      O         0.502069998883301    0.228668921796356    0.747420000844387  0.0000
  O      O         0.985232212549762    0.269212502951599    0.056180407999876  0.0000
  O      O         0.018907785275764    0.269212502661389    0.438659594454878  0.0000
  O      O         0.018907786059413    0.726806116190078    0.938659593350831  0.0000
  O      O         0.985232210129186    0.726806116504756    0.556180408909157  0.0000
  O      O         0.485232211006361    0.769212500116511    0.056180408685236  0.0000
  O      O         0.518907785675541    0.769212500077455    0.438659594092159  0.0000
  O      O         0.518907786410111    0.226806116013845    0.938659593535332  0.0000
  O      O         0.485232210986688    0.226806116132648    0.556180408540551  0.0000
  O      O         0.058878777928512    0.174730180066100    0.857516954105634  0.0000
  O      O         0.945261218892679    0.174730179992336    0.637323048892463  0.0000
  O      O         0.945261214563244    0.821288437808261    0.137323050588818  0.0000
  O      O         0.058878782725031    0.821288437786083    0.357516951076425  0.0000
  O      O         0.558878783809817    0.674730178602578    0.857516950738932  0.0000
  O      O         0.445261212939250    0.674730178525250    0.637323051929649  0.0000
  O      O         0.445261214455384    0.321288437888175    0.137323050803417  0.0000
  O      O         0.558878783025897    0.321288437999473    0.357516951345236  0.0000
  O      O         0.502069998558598    0.414278614089468    0.247420001208500  0.0000
  O      O         0.502069998448515    0.581740003019248    0.747420001302822  0.0000
  O      O         0.002069997645999    0.914278613875202    0.247420001802847  0.0000
  O      O         0.002070000000003    0.081739999999968    0.747420000000034  0.0000
