data_ReferenceDataBase/8194023_111
_audit_creation_method             Generated by GULP
_audit_author_name                 Salvador R. G. Balestra
_symmetry_space_group_name_H-M     'P 1             '
_symmetry_Int_Tables_number        1

loop_
_symmetry_equiv_pos_site_id
_symmetry_equiv_pos_as_xyz
   1     +x,+y,+z                
_cell_length_a                       13.5465
_cell_length_b                       21.2132
_cell_length_c                       11.6937
_cell_angle_alpha                   90.0000
_cell_angle_beta                    90.0000
_cell_angle_gamma                   90.0000

loop_
_atom_site_label
_atom_site_type_symbol
_atom_site_fract_x
_atom_site_fract_y
_atom_site_fract_z
_atom_site_charge
  Si     Si        0.211006371392904    0.125072963776075    0.367085408457126  0.0000
  Si     Si        0.886668507517724    0.249643919900495    0.367661714389683  0.0000
  Si     Si        0.608123333007516    0.192549539364822    0.247680133862570  0.0000
  Si     Si        0.610587145477125    0.570219420866680    0.241608896500289  0.0000
  Si     Si        0.297384302929614    0.311954253014412    0.637062930998049  0.0000
  O      O         0.135825291824090    0.180045042053665    0.330155085502104  0.0000
  O      O         0.316606659136068    0.137983606363355    0.308357769986156  0.0000
  O      O         0.164921971249570    0.059909033249519    0.321995690337124  0.0000
  O      O         0.804558383347529    0.300409959267821    0.329417831573492  0.0000
  O      O         0.649064600770608    0.586486176700087    0.114551089099917  0.0000
  O      O         0.643655182482305    0.196653182711154    0.115615529451204  0.0000
  O      O         0.621054679653286    0.261034078756881    0.305825579025252  0.0000
  O      O         0.662129905884919    0.615259017789551    0.333650011166757  0.0000
  Si     Si        0.611346681497415    0.623042222004640    0.002334335497916  0.0000
  Si     Si        0.377570349155199    0.234024363039114    0.002334276850505  0.0000
  O      O         0.656725544692906    0.693397562682069    0.002334345963501  0.0000
  Si     Si        0.882366025843694    0.998874509818016    0.638393456096913  0.0000
  O      O         0.228725764075326    0.124000762830021    0.502334274903192  0.0000
  O      O         0.897893834351406    0.251129240323834    0.502334317382368  0.0000
  O      O         0.310814527783600    0.302318667300227    0.502334271111072  0.0000
  O      O         0.994058235116660    0.264488729363427    0.311609151132350  0.0000
  O      O         0.494058195575305    0.624288627498807    0.002334309210629  0.0000
  O      O         0.494058218232496    0.242788579988440    0.002334306805226  0.0000
  O      O         0.494058225238464    0.172821110029891    0.256957119244595  0.0000
  O      O         0.494058156928689    0.580055667673909    0.250409281799870  0.0000
  O      O         0.887555242806802    0.998874574670375    0.502334322929551  0.0000
  O      O         0.994058231872112    0.998874472467286    0.687613023867803  0.0000
  O      O         0.640786665330076    0.498874510694789    0.271556892834320  0.0000
  Si     Si        0.777109982354827    0.872675978045453    0.367085461479408  0.0000
  Si     Si        0.101447849743060    0.748105011104925    0.367661694183838  0.0000
  Si     Si        0.379993014082376    0.805199399407181    0.247680074705380  0.0000
  Si     Si        0.377529220385504    0.427529523746717    0.241608843900851  0.0000
  Si     Si        0.690732145625803    0.685794691015557    0.637062995103894  0.0000
  O      O         0.852291017853142    0.817703894622167    0.330155048874374  0.0000
  O      O         0.671509657840507    0.859765345693683    0.308357879602106  0.0000
  O      O         0.823194364154248    0.937839909956814    0.321995741195629  0.0000
  O      O         0.183557975194595    0.697338994874594    0.329417728951703  0.0000
  O      O         0.339051791340156    0.411262774212561    0.114551014363836  0.0000
  O      O         0.344461195055283    0.801095755297155    0.115615451129386  0.0000
  O      O         0.367061675016553    0.736714859729042    0.305825515314198  0.0000
  O      O         0.325986436565235    0.382489927123313    0.333649931620616  0.0000
  Si     Si        0.376769728959334    0.374706727692637    0.002334279213702  0.0000
  Si     Si        0.610546056771171    0.763724587845847    0.002334338580624  0.0000
  O      O         0.331390863470159    0.304351388242143    0.002334268900911  0.0000
  Si     Si        0.105750420433001    0.998874434588608    0.638393425693038  0.0000
  O      O         0.759390676633273    0.873748159266266    0.502334340572457  0.0000
  O      O         0.090222598340822    0.746619615683064    0.502334297504158  0.0000
  O      O         0.677301833462488    0.695430279289650    0.502334344645873  0.0000
  O      O         0.994058099513475    0.733260213041707    0.311609154529308  0.0000
  O      O         0.494058214752747    0.373460316223188    0.002334304397122  0.0000
  O      O         0.494058188807517    0.754960363988791    0.002334308290997  0.0000
  O      O         0.494058118052702    0.824927832498895    0.256957122163099  0.0000
  O      O         0.494058206842933    0.417693274529791    0.250409283217933  0.0000
  O      O         0.100561155826259    0.998874368943946    0.502334292466887  0.0000
  O      O         0.347329695740862    0.498874432793324    0.271556831738419  0.0000
  Si     Si        0.211006352359373    0.872675956814452    0.637583044583515  0.0000
  Si     Si        0.886668488634574    0.748105233059972    0.637006957659818  0.0000
  Si     Si        0.608123320460838    0.805199519015666    0.756988558078495  0.0000
  Si     Si        0.610587232023049    0.427529586476727    0.763059759368239  0.0000
  Si     Si        0.297384125101293    0.685794620007583    0.367605521355616  0.0000
  O      O         0.135824901213517    0.817703921582540    0.674512482443092  0.0000
  O      O         0.316606467653737    0.859765172447110    0.696310940782914  0.0000
  O      O         0.164921950127005    0.937839836409024    0.682673002819800  0.0000
  O      O         0.804558541002319    0.697338874826093    0.675249934476726  0.0000
  O      O         0.649064637629158    0.411262877769100    0.890117607164476  0.0000
  O      O         0.643655115738258    0.801095941628287    0.889053200559382  0.0000
  O      O         0.621054917395936    0.736714943833955    0.698843364262880  0.0000
  O      O         0.662130060392474    0.382490001984781    0.671018685712819  0.0000
  Si     Si        0.611346700054404    0.374706820072045    0.002334332756913  0.0000
  Si     Si        0.377570304601843    0.763724465872695    0.002334278078763  0.0000
  O      O         0.656725575372213    0.304351501829467    0.002334347035017  0.0000
  Si     Si        0.882365979678854    0.998874508956533    0.366275190537809  0.0000
  O      O         0.228726190467851    0.873748456520269    0.502334276805368  0.0000
  O      O         0.897894179024224    0.746620966631849    0.502334320817659  0.0000
  O      O         0.310813853463066    0.695430166616634    0.502334272883666  0.0000
  O      O         0.994058165902678    0.733260213825010    0.693059463810832  0.0000
  O      O         0.494058175158943    0.824927833723890    0.747711495736670  0.0000
  O      O         0.494058252825127    0.417693276774084    0.754259332501806  0.0000
  O      O         0.994058167520774    0.998874471406080    0.317055591546696  0.0000
  O      O         0.640786716497786    0.498874510760993    0.733111793776644  0.0000
  Si     Si        0.777110094470011    0.125072989583791    0.637583109605353  0.0000
  Si     Si        0.101447961579533    0.249643722825909    0.637006925782060  0.0000
  Si     Si        0.379993137666809    0.192549432371848    0.756988493863556  0.0000
  Si     Si        0.377529222730011    0.570219356592858    0.763059704266872  0.0000
  Si     Si        0.690732229981479    0.311954321581791    0.367605591817653  0.0000
  O      O         0.852291530976348    0.180045028756581    0.674512591933919  0.0000
  O      O         0.671509985978009    0.137983763769126    0.696311011825883  0.0000
  O      O         0.823194510530110    0.059909107591575    0.682673046424232  0.0000
  O      O         0.183557936946042    0.300410056958532    0.675249952844060  0.0000
  O      O         0.339051796118194    0.586486058808746    0.890117538193801  0.0000
  O      O         0.344461309674572    0.196653018657744    0.889053114344285  0.0000
  O      O         0.367061571320769    0.261034001152009    0.698843260725788  0.0000
  O      O         0.325986410882797    0.615258943591313    0.671018611991906  0.0000
  Si     Si        0.376769710309063    0.623042118132718    0.002334281448163  0.0000
  Si     Si        0.610546101363715    0.234024471238728    0.002334336839137  0.0000
  O      O         0.331390833003993    0.693397435218497    0.002334269090960  0.0000
  Si     Si        0.105750374301570    0.998874433855902    0.366275158451979  0.0000
  O      O         0.759390248534083    0.124000508264601    0.502334338464733  0.0000
  O      O         0.090222253762432    0.251128065111681    0.502334294476217  0.0000
  O      O         0.677302508529077    0.302318774660537    0.502334340720857  0.0000
  O      O         0.994058300591363    0.264488730451529    0.693059460610062  0.0000
  O      O         0.494058281806568    0.172821111352658    0.747711493435809  0.0000
  O      O         0.494058203573078    0.580055667735654    0.754259333505057  0.0000
  O      O         0.347329745111310    0.498874433422829    0.733111711472805  0.0000
  Si     Si        0.777110029610894    0.872675978168239    0.637583215142651  0.0000
  Si     Si        0.101447896631597    0.748105011711566    0.637006897785391  0.0000
  Si     Si        0.379993069907114    0.805199399092544    0.756988480515015  0.0000
  Si     Si        0.377529264351752    0.427529524228631    0.763059715428847  0.0000
  Si     Si        0.690732098438501    0.685794691229877    0.367605691089157  0.0000
  O      O         0.852291080130615    0.817703895623296    0.674513605696701  0.0000
  O      O         0.671509726943694    0.859765346010223    0.696310828686269  0.0000
  O      O         0.823194427165135    0.937839911055440    0.682672922530010  0.0000
  O      O         0.183558035878801    0.697338996129300    0.675250846182435  0.0000
  O      O         0.339051810866425    0.411262773540433    0.890117525837118  0.0000
  O      O         0.344461219070491    0.801095750321775    0.889053083400353  0.0000
  O      O         0.367061742833158    0.736714862978462    0.698843016607804  0.0000
  O      O         0.325986501247402    0.382489926487144    0.671018603556952  0.0000
  Si     Si        0.211006418079273    0.125072963962136    0.637583145800664  0.0000
  Si     Si        0.886668553502748    0.249643921023040    0.637006923400744  0.0000
  Si     Si        0.608123388365846    0.192549539150196    0.756988540066206  0.0000
  Si     Si        0.610587190242376    0.570219420662162    0.763059774445726  0.0000
  Si     Si        0.297384256244177    0.311954253112991    0.367605614255706  0.0000
  O      O         0.135825353128578    0.180045043049442    0.674513490528206  0.0000
  O      O         0.316606727518840    0.137983606904800    0.696310752748071  0.0000
  O      O         0.164922034101866    0.059909034281873    0.682672876740057  0.0000
  O      O         0.804558442889375    0.300409961612553    0.675250821263027  0.0000
  O      O         0.649064621181137    0.586486175616937    0.890117600974435  0.0000
  O      O         0.643655206742100    0.196653178830876    0.889053164749357  0.0000
  O      O         0.621054746892759    0.261034081522459    0.698843115603893  0.0000
  O      O         0.662129970696966    0.615259017032075    0.671018684310447  0.0000
  Si     Si        0.777110048023271    0.125072988182380    0.367085562655391  0.0000
  Si     Si        0.101447915367336    0.249643721955924    0.367661660405401  0.0000
  Si     Si        0.379993082510748    0.192549430154420    0.247680057596804  0.0000
  Si     Si        0.377529177908537    0.570219356279617    0.241608857596956  0.0000
  Si     Si        0.690732276412388    0.311954323316038    0.637063086074639  0.0000
  O      O         0.852291471423548    0.180045027059506    0.330156058175430  0.0000
  O      O         0.671509918341862    0.137983762832870    0.308357690558308  0.0000
  O      O         0.823194447217748    0.059909106110684    0.321995615155762  0.0000
  O      O         0.183557877912916    0.300410055893006    0.329418616341417  0.0000
  O      O         0.339051774150038    0.586486059371949    0.114551006451405  0.0000
  O      O         0.344461285853396    0.196653013073456    0.115615416655062  0.0000
  O      O         0.367061505495748    0.261034002130949    0.305825270105672  0.0000
  O      O         0.325986346304615    0.615258941269921    0.333649928608341  0.0000
  Si     Si        0.211006305423797    0.872675955519732    0.367085513705002  0.0000
  Si     Si        0.886668441743205    0.748105232271631    0.367661686806560  0.0000
  Si     Si        0.608123264763534    0.805199516816748    0.247680121702524  0.0000
  Si     Si        0.610587187711973    0.427529586389191    0.241608906976486  0.0000
  Si     Si        0.297384172687060    0.685794621633454    0.637063027997313  0.0000
  O      O         0.135824839843922    0.817703920704989    0.330156098231674  0.0000
  O      O         0.316606399218788    0.859765170949291    0.308357587199806  0.0000
  O      O         0.164921887174945    0.937839835251725    0.321995566224014  0.0000
  O      O         0.804558481259389    0.697338873831974    0.329418727242752  0.0000
  O      O         0.649064615052211    0.411262880254925    0.114551074760782  0.0000
  O      O         0.643655091772452    0.801095935553312    0.115615499912415  0.0000
  O      O         0.621054850725071    0.736714945038829    0.305825337150106  0.0000
  O      O         0.662130000000047    0.382489999999962    0.333650000000034  0.0000
