data_ReferenceDataBase/8268600_111
_audit_creation_method             Generated by GULP
_audit_author_name                 Salvador R. G. Balestra
_symmetry_space_group_name_H-M     'P 1             '
_symmetry_Int_Tables_number        1

loop_
_symmetry_equiv_pos_site_id
_symmetry_equiv_pos_as_xyz
   1     +x,+y,+z                
_cell_length_a                       13.3513
_cell_length_b                       20.6642
_cell_length_c                       22.3552
_cell_angle_alpha                   90.0000
_cell_angle_beta                    90.0000
_cell_angle_gamma                   90.0000

loop_
_atom_site_label
_atom_site_type_symbol
_atom_site_fract_x
_atom_site_fract_y
_atom_site_fract_z
_atom_site_charge
  Si     Si        0.697046726441274    0.137242859289132    0.391802523879276  0.0000
  Si     Si        0.302953157606837    0.844787521056225    0.391802661627862  0.0000
  Si     Si        0.197046826956483    0.344787557100199    0.614741730659360  0.0000
  Si     Si        0.802953199163683    0.637242856066930    0.614741701232768  0.0000
  Si     Si        0.802953172808007    0.344787557107852    0.614741730698297  0.0000
  Si     Si        0.197046800574389    0.637242856078603    0.614741701233611  0.0000
  Si     Si        0.302953273390721    0.137242859311462    0.391802523937047  0.0000
  Si     Si        0.697046842153912    0.844787521044267    0.391802661605140  0.0000
  Si     Si        0.698429963680435    0.841829393821353    0.618882401976383  0.0000
  Si     Si        0.301570043019882    0.140201030023676    0.618882365912515  0.0000
  Si     Si        0.198430014915669    0.640200994643329    0.387661940824751  0.0000
  Si     Si        0.801570115435068    0.341829356149342    0.387661878081939  0.0000
  Si     Si        0.801569984875207    0.640200994647913    0.387661940826949  0.0000
  Si     Si        0.198429884357443    0.341829356152803    0.387661878061724  0.0000
  Si     Si        0.301570036042113    0.841829393844278    0.618882401993174  0.0000
  Si     Si        0.698429956730231    0.140201030029919    0.618882365878265  0.0000
  Si     Si        0.195171260298004    0.649010426884629    0.827619694497018  0.0000
  Si     Si        0.804828707068705    0.333020014490335    0.827619727112276  0.0000
  Si     Si        0.695171171018872    0.833019976602679    0.178924682059228  0.0000
  Si     Si        0.304828557027690    0.149010420384395    0.178924448949815  0.0000
  Si     Si        0.304828828719089    0.833019976628158    0.178924682091366  0.0000
  Si     Si        0.695171442771317    0.149010420396726    0.178924448882127  0.0000
  Si     Si        0.804828739418259    0.649010426876525    0.827619694505751  0.0000
  Si     Si        0.195171292715900    0.333020014499499    0.827619727080108  0.0000
  Si     Si        0.196234363074425    0.346818079398258    0.174857998443047  0.0000
  Si     Si        0.803765779004796    0.635212480447451    0.174858064822980  0.0000
  Si     Si        0.696234280910485    0.135212418473893    0.831686254345946  0.0000
  Si     Si        0.303765752955080    0.846817951386254    0.831686276440796  0.0000
  Si     Si        0.303765718858020    0.135212418485314    0.831686254374616  0.0000
  Si     Si        0.696234246751952    0.846817951374310    0.831686276423329  0.0000
  Si     Si        0.803765636709139    0.346818079417028    0.174857998468691  0.0000
  Si     Si        0.196234220757981    0.635212480463101    0.174858064813646  0.0000
  Si     Si        0.387041072742130    0.710902636205480    0.353635066713239  0.0000
  Si     Si        0.612958942893199    0.271127829399820    0.353635043184793  0.0000
  Si     Si        0.887041067977206    0.771127790185630    0.652909236414561  0.0000
  Si     Si        0.112958933662934    0.210902631903835    0.652909231358306  0.0000
  Si     Si        0.112958931751801    0.771127790199269    0.652909236413712  0.0000
  Si     Si        0.887041066097868    0.210902631910990    0.652909231363164  0.0000
  Si     Si        0.612958927037806    0.710902636182613    0.353635066696330  0.0000
  Si     Si        0.387041056922153    0.271127829424364    0.353635043206337  0.0000
  Si     Si        0.387302408858632    0.272501976025657    0.644739311288907  0.0000
  Si     Si        0.612697592069508    0.709528427914682    0.644739217291539  0.0000
  Si     Si        0.887302381849934    0.209528368077393    0.361804912342508  0.0000
  Si     Si        0.112697574657119    0.772501934090331    0.361805127919315  0.0000
  Si     Si        0.112697617961449    0.209528368077342    0.361804912318157  0.0000
  Si     Si        0.887302425106152    0.772501934099806    0.361805127939574  0.0000
  Si     Si        0.612697590903347    0.272501976027079    0.644739311284924  0.0000
  Si     Si        0.387302407657906    0.709528427936404    0.644739217288043  0.0000
  Si     Si        0.881824437926834    0.566741174990506    0.499266132109996  0.0000
  Si     Si        0.118175558835616    0.415289152885065    0.499266162763675  0.0000
  Si     Si        0.381824438905681    0.915289214906690    0.507278194776104  0.0000
  Si     Si        0.618175565484738    0.066741234755450    0.507278112194718  0.0000
  Si     Si        0.618175560795166    0.915289214891833    0.507278194759800  0.0000
  Si     Si        0.381824434245164    0.066741234764776    0.507278112233202  0.0000
  Si     Si        0.118175561841481    0.566741174989264    0.499266132109420  0.0000
  Si     Si        0.881824440934087    0.415289152888513    0.499266162788916  0.0000
  Si     Si        0.116159673480297    0.417199440203300    0.066925103925896  0.0000
  Si     Si        0.883840308696323    0.564831117740136    0.066925102848150  0.0000
  Si     Si        0.616159657947049    0.064830960454882    0.939619115003696  0.0000
  Si     Si        0.383840287474439    0.917199286808057    0.939619250221071  0.0000
  Si     Si        0.383840341792828    0.064830960464580    0.939619115035336  0.0000
  Si     Si        0.616159712235435    0.917199286804326    0.939619250201301  0.0000
  Si     Si        0.883840326367925    0.417199440194370    0.066925103944590  0.0000
  Si     Si        0.116159691103417    0.564831117750141    0.066925102837398  0.0000
  Si     Si        0.115906240522270    0.565384753037295    0.929259175839500  0.0000
  Si     Si        0.884093781827529    0.416645743119207    0.929259162469669  0.0000
  Si     Si        0.615906255522304    0.916645714580768    0.077285170422208  0.0000
  Si     Si        0.384093798957728    0.065384723542414    0.077285069878174  0.0000
  Si     Si        0.384093744282611    0.916645714576284    0.077285170438889  0.0000
  Si     Si        0.615906200852784    0.065384723547778    0.077285069846043  0.0000
  Si     Si        0.884093759227294    0.565384753020727    0.929259175844697  0.0000
  Si     Si        0.115906217971223    0.416645743135582    0.929259162451956  0.0000
  Si     Si        0.114981724364044    0.564570013488870    0.721427379213774  0.0000
  Si     Si        0.885018260769660    0.417460427151636    0.721427407812095  0.0000
  Si     Si        0.614981721148146    0.917460367289655    0.285117028642325  0.0000
  Si     Si        0.385018139934786    0.064569918927603    0.285116722896070  0.0000
  Si     Si        0.385018278630906    0.917460367320523    0.285117028683240  0.0000
  Si     Si        0.614981860021336    0.064569918902524    0.285116722820746  0.0000
  Si     Si        0.885018275374279    0.564570013494976    0.721427379216850  0.0000
  Si     Si        0.114981738962843    0.417460427145724    0.721427407768452  0.0000
  Si     Si        0.113654331908548    0.416462979607327    0.281046503966938  0.0000
  Si     Si        0.886345707178012    0.565567520135578    0.281046596607619  0.0000
  Si     Si        0.613654323837926    0.065567460461082    0.725497710951438  0.0000
  Si     Si        0.386345681158626    0.916462911451951    0.725497766333316  0.0000
  Si     Si        0.386345675885100    0.065567460469988    0.725497710980295  0.0000
  Si     Si        0.613654318540130    0.916462911440361    0.725497766314317  0.0000
  Si     Si        0.886345667845177    0.416462979633405    0.281046503990547  0.0000
  Si     Si        0.113654292679408    0.565567520115128    0.281046596602128  0.0000
  Si     Si        0.614574205029033    0.713132540215773    0.785146200713499  0.0000
  Si     Si        0.385425798490798    0.268897838411604    0.785146284089404  0.0000
  Si     Si        0.114574216822566    0.768897912156640    0.221398138407827  0.0000
  Si     Si        0.885425819292808    0.213132682552611    0.221397942601357  0.0000
  Si     Si        0.885425782896113    0.768897912155987    0.221398138426331  0.0000
  Si     Si        0.114574180472350    0.213132682548919    0.221397942579501  0.0000
  Si     Si        0.385425794684113    0.713132540236471    0.785146200710093  0.0000
  Si     Si        0.614574201306510    0.268897838421698    0.785146284084565  0.0000
  Si     Si        0.614164271597722    0.282425529428647    0.213611692082740  0.0000
  Si     Si        0.385835704765171    0.699604817081298    0.213611717654701  0.0000
  Si     Si        0.114164281985234    0.199604864058158    0.792932584220667  0.0000
  Si     Si        0.885835717635345    0.782425580563378    0.792932591457489  0.0000
  Si     Si        0.885835717784904    0.199604864046820    0.792932584221627  0.0000
  Si     Si        0.114164282075023    0.782425580574434    0.792932591455342  0.0000
  Si     Si        0.385835728178026    0.282425529423676    0.213611692099703  0.0000
  Si     Si        0.614164294991908    0.699604817057951    0.213611717636874  0.0000
  O      O         0.627704327493120    0.198790738647339    0.377760468741108  0.0000
  O      O         0.372295679515582    0.783239719303728    0.377760508052266  0.0000
  O      O         0.127704340427438    0.283239730127401    0.628783839337881  0.0000
  O      O         0.872295651604153    0.698790694003560    0.628783834411863  0.0000
  O      O         0.872295659376049    0.283239730147423    0.628783839362645  0.0000
  O      O         0.127704348132529    0.698790694013201    0.628783834420759  0.0000
  O      O         0.372295672293981    0.198790738691873    0.377760468807711  0.0000
  O      O         0.627704320292822    0.783239719267613    0.377760508053451  0.0000
  O      O         0.628725871287271    0.778518137551839    0.612651092586392  0.0000
  O      O         0.371274150619232    0.203512286353670    0.612651141011656  0.0000
  O      O         0.128725861432147    0.703512221392445    0.393893239770303  0.0000
  O      O         0.871274121854905    0.278518051833003    0.393893100742663  0.0000
  O      O         0.871274138306314    0.703512221415442    0.393893239811439  0.0000
  O      O         0.128725878016165    0.278518051803965    0.393893100762456  0.0000
  O      O         0.371274128446398    0.778518137578154    0.612651092587646  0.0000
  O      O         0.628725849104584    0.203512286349277    0.612651141012448  0.0000
  O      O         0.813987099782201    0.156901733912097    0.391433281058450  0.0000
  O      O         0.186012834493481    0.825128533869883    0.391433558867606  0.0000
  O      O         0.313987164100045    0.325128604448085    0.615110915237138  0.0000
  O      O         0.686012857026844    0.656901814866911    0.615110800080546  0.0000
  O      O         0.686012835675312    0.325128604430668    0.615110915216612  0.0000
  O      O         0.313987142704781    0.656901814891556    0.615110800074131  0.0000
  O      O         0.186012900026623    0.156901733867454    0.391433280963539  0.0000
  O      O         0.813987165282133    0.825128533887840    0.391433558890715  0.0000
  O      O         0.814813798472052    0.820256813974910    0.617264684469124  0.0000
  O      O         0.185186210413124    0.161773618217829    0.617264668793004  0.0000
  O      O         0.314813830425237    0.661773607658303    0.389279629486794  0.0000
  O      O         0.685186245852857    0.320256845992298    0.389279582195942  0.0000
  O      O         0.685186169339836    0.661773607614256    0.389279629453109  0.0000
  O      O         0.314813753970612    0.320256846052527    0.389279582186989  0.0000
  O      O         0.185186201253076    0.820256813990226    0.617264684464720  0.0000
  O      O         0.814813789328132    0.161773618246157    0.617264668787982  0.0000
  O      O         0.667906619253445    0.108270681243368    0.455252260519726  0.0000
  O      O         0.332093411567640    0.873759705987662    0.455252373907812  0.0000
  O      O         0.167906690058649    0.373759721675732    0.551291995090273  0.0000
  O      O         0.832093492034937    0.608270651612609    0.551292003461345  0.0000
  O      O         0.832093309759177    0.373759721725839    0.551291995158500  0.0000
  O      O         0.167906507716100    0.608270651613560    0.551292003464022  0.0000
  O      O         0.332093380389353    0.108270681348751    0.455252260645436  0.0000
  O      O         0.667906588075503    0.873759706019997    0.455252373845647  0.0000
  O      O         0.671776641589736    0.892781760731143    0.567798778411843  0.0000
  O      O         0.328223358526750    0.089248744955276    0.567798674053514  0.0000
  O      O         0.171776746692205    0.589248650380451    0.438745589758572  0.0000
  O      O         0.828223479318050    0.392781633304879    0.438745568669059  0.0000
  O      O         0.828223253081907    0.589248650378202    0.438745589756620  0.0000
  O      O         0.171776520398210    0.392781633334944    0.438745568613689  0.0000
  O      O         0.328223358149437    0.892781760787479    0.567798778457437  0.0000
  O      O         0.671776641289275    0.089248745012367    0.567798673965140  0.0000
  O      O         0.681701651307061    0.082700366142387    0.341959709438538  0.0000
  O      O         0.318297810765786    0.899329988672814    0.341959755210379  0.0000
  O      O         0.181701996193100    0.399330054853308    0.664584589312033  0.0000
  O      O         0.818297927790455    0.582700394195971    0.664584603941729  0.0000
  O      O         0.818298003461601    0.399330054826778    0.664584589397986  0.0000
  O      O         0.181702071952391    0.582700394209393    0.664584603945423  0.0000
  O      O         0.318298348814785    0.082700366095430    0.341959709597986  0.0000
  O      O         0.681702189057026    0.899329988605913    0.341959755136353  0.0000
  O      O         0.683295338769611    0.875540527034507    0.682269281966966  0.0000
  O      O         0.316704656449539    0.106489793694341    0.682269193199851  0.0000
  O      O         0.183295432345515    0.606489828605869    0.324275071754279  0.0000
  O      O         0.816704812859442    0.375540571897493    0.324275052606508  0.0000
  O      O         0.816704567534373    0.606489828652240    0.324275071748003  0.0000
  O      O         0.183295186888138    0.375540571842380    0.324275052563041  0.0000
  O      O         0.316704660923616    0.875540527032487    0.682269281999925  0.0000
  O      O         0.683295343260819    0.106489793648985    0.682269193137299  0.0000
  O      O         0.185493543838732    0.613214172509189    0.890983147669218  0.0000
  O      O         0.814506464748452    0.368816283762177    0.890983174946846  0.0000
  O      O         0.685493523184049    0.868816347189348    0.115561278486636  0.0000
  O      O         0.314506444580492    0.113214237748907    0.115560971135354  0.0000
  O      O         0.314506476623060    0.868816347205226    0.115561278522407  0.0000
  O      O         0.685493555242885    0.113214237806462    0.115560971042570  0.0000
  O      O         0.814506455888778    0.613214172475852    0.890983147667780  0.0000
  O      O         0.185493535043294    0.368816283805922    0.890983174896428  0.0000
  O      O         0.181313719970966    0.367260380780979    0.106097473731190  0.0000
  O      O         0.818686353848490    0.614770184154427    0.106097526814617  0.0000
  O      O         0.681313717663822    0.114770031745002    0.900446764245545  0.0000
  O      O         0.318686375185946    0.867260199920247    0.900446822569257  0.0000
  O      O         0.318686282075984    0.114770031757620    0.900446764279136  0.0000
  O      O         0.681313624493853    0.867260199905653    0.900446822548827  0.0000
  O      O         0.818686279893929    0.367260380766921    0.106097473755296  0.0000
  O      O         0.181313645945136    0.614770184165451    0.106097526804141  0.0000
  O      O         0.141381363940061    0.606273798973945    0.778370306961757  0.0000
  O      O         0.858618467856399    0.375756673727545    0.778370320049270  0.0000
  O      O         0.641380928827668    0.875756373684456    0.228174128692446  0.0000
  O      O         0.358617785334685    0.106273550741432    0.228173869360250  0.0000
  O      O         0.358619070794219    0.875756373720956    0.228174128758418  0.0000
  O      O         0.641382214459351    0.106273550641299    0.228173869209161  0.0000
  O      O         0.858618635829196    0.606273799014683    0.778370306950338  0.0000
  O      O         0.141381531981695    0.375756673695256    0.778370319968980  0.0000
  O      O         0.151012956662564    0.405307805207876    0.213770575704456  0.0000
  O      O         0.848987541243398    0.576722838001578    0.213770598205367  0.0000
  O      O         0.651012650208770    0.076722771970122    0.792773673997471  0.0000
  O      O         0.348987394936952    0.905307638367268    0.792773749078171  0.0000
  O      O         0.348987349557702    0.076722771969863    0.792773674037249  0.0000
  O      O         0.651012604772362    0.905307638349302    0.792773749054347  0.0000
  O      O         0.848987043029228    0.405307805249889    0.213770575737855  0.0000
  O      O         0.151012458583858    0.576722837999053    0.213770598197522  0.0000
  O      O         0.312973377175810    0.658551585184672    0.813112083964196  0.0000
  O      O         0.687026583841975    0.323478810274584    0.813112170404511  0.0000
  O      O         0.812973298470504    0.823478907022240    0.193432365415306  0.0000
  O      O         0.187026439669660    0.158551776151006    0.193431858926551  0.0000
  O      O         0.187026701248782    0.823478907015941    0.193432365387126  0.0000
  O      O         0.812973560111954    0.158551776187610    0.193431858883285  0.0000
  O      O         0.687026622527954    0.658551585157598    0.813112083969917  0.0000
  O      O         0.312973415945104    0.323478810263485    0.813112170398342  0.0000
  O      O         0.314471484235579    0.338879629427314    0.188243433165592  0.0000
  O      O         0.685528629158245    0.643150674183585    0.188243601893811  0.0000
  O      O         0.814471412821377    0.143150748556286    0.818300761464920  0.0000
  O      O         0.185528608738623    0.838879685046880    0.818300777891262  0.0000
  O      O         0.185528586954451    0.143150748578293    0.818300761475822  0.0000
  O      O         0.814471390970982    0.838879685048510    0.818300777869971  0.0000
  O      O         0.685528515531930    0.338879629427212    0.188243433131804  0.0000
  O      O         0.314471370591499    0.643150674228999    0.188243601889619  0.0000
  O      O         0.138411449368037    0.717501078636870    0.829712305872641  0.0000
  O      O         0.861588564939574    0.264529376821721    0.829712293009053  0.0000
  O      O         0.638411543277695    0.764529257487292    0.176831912577084  0.0000
  O      O         0.361588674846053    0.217500968812971    0.176832047855084  0.0000
  O      O         0.361588456503441    0.764529257529862    0.176831912622795  0.0000
  O      O         0.638411324915622    0.217500968811509    0.176832047844855  0.0000
  O      O         0.861588550314734    0.717501078642443    0.829712305900093  0.0000
  O      O         0.138411434819971    0.264529376837976    0.829712293005879  0.0000
  O      O         0.136493036820673    0.281453919662117    0.190305615385505  0.0000
  O      O         0.863506823746521    0.700576783933719    0.190305602661990  0.0000
  O      O         0.636493103665745    0.200576678623358    0.816238761149705  0.0000
  O      O         0.363506887143746    0.781453705806262    0.816238671176411  0.0000
  O      O         0.363506896141431    0.200576678619051    0.816238761170195  0.0000
  O      O         0.636493112583209    0.781453705784618    0.816238671174176  0.0000
  O      O         0.863506962983850    0.281453919707559    0.190305615477735  0.0000
  O      O         0.136493175949910    0.700576783925925    0.190305602651154  0.0000
  O      O         0.362139123190223    0.711886164642602    0.283257468335448  0.0000
  O      O         0.637860917569188    0.270144332993999    0.283257450951506  0.0000
  O      O         0.862139139871643    0.770144312509747    0.723286834382652  0.0000
  O      O         0.137860873065048    0.211886110457224    0.723286827015062  0.0000
  O      O         0.137860859857601    0.770144312544526    0.723286834380410  0.0000
  O      O         0.862139126694260    0.211886110450489    0.723286827019159  0.0000
  O      O         0.637860876571006    0.711886164642549    0.283257468315024  0.0000
  O      O         0.362139082248872    0.270144332978569    0.283257450972425  0.0000
  O      O         0.362434005002268    0.263386262793495    0.714695151162837  0.0000
  O      O         0.637565970453864    0.718644090143246    0.714695065932430  0.0000
  O      O         0.862433933168037    0.218644067808046    0.291849077454101  0.0000
  O      O         0.137565903565734    0.763386272350507    0.291849275048251  0.0000
  O      O         0.137566066564390    0.218644067881212    0.291849077429611  0.0000
  O      O         0.862434096184728    0.763386272341645    0.291849275070091  0.0000
  O      O         0.637565994800086    0.263386262814563    0.714695151156985  0.0000
  O      O         0.362434029261131    0.718644090164180    0.714695065928899  0.0000
  O      O         0.134892977239276    0.399039518730082    0.998128659771846  0.0000
  O      O         0.865106892294044    0.582991009463025    0.998128662090107  0.0000
  O      O         0.634892889576449    0.082990892412782    0.008415559234814  0.0000
  O      O         0.365106775409269    0.899039436477898    0.008415693968611  0.0000
  O      O         0.365107110191563    0.082990892428205    0.008415559271899  0.0000
  O      O         0.634893224342433    0.899039436487628    0.008415693946457  0.0000
  O      O         0.865107022595749    0.399039518722133    0.998128659793978  0.0000
  O      O         0.134893107482613    0.582991009481891    0.998128662080604  0.0000
  O      O         0.499999999886306    0.688144540853005    0.366035243767471  0.0000
  O      O         0.499999999916398    0.293885912713394    0.366035225849557  0.0000
  O      O         0.999999999861885    0.793885861746406    0.640509029598794  0.0000
  O      O         0.999999999877669    0.188144557741389    0.640509026209691  0.0000
  O      O         0.499999999881967    0.296665298031196    0.633870290568637  0.0000
  O      O         0.499999999859326    0.685365121443632    0.633870162601708  0.0000
  O      O         0.999999999908350    0.185365061837093    0.372673912016675  0.0000
  O      O         0.999999999885729    0.796665249192773    0.372674207879397  0.0000
  O      O         0.499999999852756    0.692630634151521    0.797091338837650  0.0000
  O      O         0.499999999897119    0.289399747008728    0.797091410403415  0.0000
  O      O         0.999999999857674    0.789399816230201    0.209452981673370  0.0000
  O      O         0.999999999879560    0.192630795048130    0.209452815344346  0.0000
  O      O         0.499999999885376    0.303814534881968    0.203076696513148  0.0000
  O      O         0.499999999872196    0.678215825868146    0.203076713219745  0.0000
  O      O         0.999999999886925    0.178215871243685    0.803467602471766  0.0000
  O      O         0.999999999851847    0.803814581209611    0.803467613001371  0.0000
  O      O         0.860371428307318    0.491015167758942    0.509158221903278  0.0000
  O      O         0.139628571465103    0.491015167754919    0.509158221899780  0.0000
  O      O         0.360371423116236    0.991015216462730    0.497386062850466  0.0000
  O      O         0.639628576596400    0.991015216446265    0.497386062875049  0.0000
  O      O         0.149818103569225    0.491015278165721    0.078870479244598  0.0000
  O      O         0.850181896256998    0.491015278152760    0.078870479268363  0.0000
  O      O         0.649818109821347    0.991015115059999    0.927673790633064  0.0000
  O      O         0.350181889904092    0.991015115071563    0.927673790675276  0.0000
  O      O         0.145557394949586    0.491015245306036    0.916536372814933  0.0000
  O      O         0.854442604819946    0.491015245284019    0.916536372824560  0.0000
  O      O         0.645557374070173    0.991015234499850    0.090007932843979  0.0000
  O      O         0.354442625751688    0.991015234493819    0.090007932863076  0.0000
  O      O         0.136877933624291    0.491015225975135    0.738701955386472  0.0000
  O      O         0.863122066106782    0.491015225987747    0.738701955409760  0.0000
  O      O         0.636878158545120    0.991015098788803    0.267842354231260  0.0000
  O      O         0.363121841356375    0.991015098831893    0.267842354258326  0.0000
  O      O         0.122394492625478    0.491015239213112    0.297752797399049  0.0000
  O      O         0.877605507214942    0.491015239240766    0.297752797428817  0.0000
  O      O         0.622394587582162    0.991015177261917    0.708791530030000  0.0000
  O      O         0.377605412093480    0.991015177274385    0.708791530048787  0.0000
  O      O         0.999999999884425    0.580177762387026    0.495631280332586  0.0000
  O      O         0.999999999883382    0.401852538342195    0.495631466171699  0.0000
  O      O         0.499999999848939    0.901852624183769    0.510912991007240  0.0000
  O      O         0.499999999867573    0.080177835656773    0.510912870609425  0.0000
  O      O         0.999999999928416    0.408875767947273    0.083552332894205  0.0000
  O      O         0.999999999900437    0.573154792336287    0.083552256651384  0.0000
  O      O         0.499999999865341    0.073154617089335    0.922991839040727  0.0000
  O      O         0.499999999851019    0.908875599866969    0.922992164680223  0.0000
  O      O         0.999999999871706    0.576269963052449    0.912103815530152  0.0000
  O      O         0.999999999898281    0.405760536775892    0.912103739160094  0.0000
  O      O         0.499999999905754    0.905760488969313    0.094440475269980  0.0000
  O      O         0.499999999910047    0.076269942333680    0.094440532995797  0.0000
  O      O         0.999999999871865    0.392016622437054    0.288424567549408  0.0000
  O      O         0.999999999934070    0.590013870047324    0.288424962722423  0.0000
  O      O         0.499999999862525    0.090013772470709    0.718119437288338  0.0000
  O      O         0.499999999845450    0.892016597878890    0.718119488681712  0.0000
  O      O         0.999999999869537    0.575959970512859    0.703483491047440  0.0000
  O      O         0.999999999857040    0.406070417863310    0.703483601997424  0.0000
  O      O         0.499999999894521    0.906070684967493    0.303061118615421  0.0000
  O      O         0.500000000000000    0.075960000000009    0.303059999999959  0.0000
