data_ReferenceDataBase/8268600_111
_audit_creation_method             Generated by GULP
_audit_author_name                 Salvador R. G. Balestra
_symmetry_space_group_name_H-M     'P 1             '
_symmetry_Int_Tables_number        1

loop_
_symmetry_equiv_pos_site_id
_symmetry_equiv_pos_as_xyz
   1     +x,+y,+z                
_cell_length_a                       13.3513
_cell_length_b                       20.6642
_cell_length_c                       22.3552
_cell_angle_alpha                   90.0000
_cell_angle_beta                    90.0000
_cell_angle_gamma                   90.0000

loop_
_atom_site_label
_atom_site_type_symbol
_atom_site_fract_x
_atom_site_fract_y
_atom_site_fract_z
_atom_site_charge
  Si     Si        0.697046699999987    0.137242900000047    0.391802500000040  0.0000
  Si     Si        0.302953200000047    0.844787500000052    0.391802699999971  0.0000
  Si     Si        0.197046799999953    0.344787600000018    0.614741699999968  0.0000
  Si     Si        0.802953200000047    0.637242900000047    0.614741699999968  0.0000
  Si     Si        0.802953200000047    0.344787600000018    0.614741699999968  0.0000
  Si     Si        0.197046799999953    0.637242900000047    0.614741699999968  0.0000
  Si     Si        0.302953300000013    0.137242900000047    0.391802500000040  0.0000
  Si     Si        0.697046799999953    0.844787500000052    0.391802699999971  0.0000
  Si     Si        0.698429899999951    0.841829400000051    0.618882399999961  0.0000
  Si     Si        0.301570100000049    0.140201000000047    0.618882399999961  0.0000
  Si     Si        0.198430000000030    0.640201000000047    0.387661900000012  0.0000
  Si     Si        0.801570100000049    0.341829400000051    0.387661900000012  0.0000
  Si     Si        0.801569999999970    0.640201000000047    0.387661900000012  0.0000
  Si     Si        0.198429899999951    0.341829400000051    0.387661900000012  0.0000
  Si     Si        0.301569999999970    0.841829400000051    0.618882399999961  0.0000
  Si     Si        0.698429899999951    0.140201000000047    0.618882399999961  0.0000
  Si     Si        0.195171299999970    0.649010399999952    0.827619700000014  0.0000
  Si     Si        0.804828700000030    0.333020000000033    0.827619700000014  0.0000
  Si     Si        0.695171200000004    0.833020000000033    0.178924700000039  0.0000
  Si     Si        0.304828599999951    0.149010399999952    0.178924499999994  0.0000
  Si     Si        0.304828799999996    0.833020000000033    0.178924700000039  0.0000
  Si     Si        0.695171400000049    0.149010399999952    0.178924499999994  0.0000
  Si     Si        0.804828799999996    0.649010399999952    0.827619700000014  0.0000
  Si     Si        0.195171299999970    0.333020000000033    0.827619700000014  0.0000
  Si     Si        0.196234399999980    0.346818099999950    0.174857999999972  0.0000
  Si     Si        0.803765799999951    0.635212499999966    0.174858100000051  0.0000
  Si     Si        0.696234300000015    0.135212400000000    0.831686300000001  0.0000
  Si     Si        0.303765699999985    0.846817999999985    0.831686300000001  0.0000
  Si     Si        0.303765699999985    0.135212400000000    0.831686300000001  0.0000
  Si     Si        0.696234200000049    0.846817999999985    0.831686300000001  0.0000
  Si     Si        0.803765699999985    0.346818099999950    0.174857999999972  0.0000
  Si     Si        0.196234200000049    0.635212499999966    0.174858100000051  0.0000
  Si     Si        0.387041100000033    0.710902600000054    0.353635100000020  0.0000
  Si     Si        0.612959000000046    0.271127800000045    0.353635000000054  0.0000
  Si     Si        0.887041100000033    0.771127800000045    0.652909199999954  0.0000
  Si     Si        0.112958899999967    0.210902600000054    0.652909199999954  0.0000
  Si     Si        0.112958899999967    0.771127800000045    0.652909199999954  0.0000
  Si     Si        0.887041100000033    0.210902600000054    0.652909199999954  0.0000
  Si     Si        0.612958899999967    0.710902600000054    0.353635100000020  0.0000
  Si     Si        0.387041100000033    0.271127800000045    0.353635000000054  0.0000
  Si     Si        0.387302399999953    0.272502000000031    0.644739299999969  0.0000
  Si     Si        0.612697600000047    0.709528399999954    0.644739200000004  0.0000
  Si     Si        0.887302399999953    0.209528399999954    0.361804900000038  0.0000
  Si     Si        0.112697600000047    0.772501899999952    0.361805099999970  0.0000
  Si     Si        0.112697600000047    0.209528399999954    0.361804900000038  0.0000
  Si     Si        0.887302399999953    0.772501899999952    0.361805099999970  0.0000
  Si     Si        0.612697600000047    0.272502000000031    0.644739299999969  0.0000
  Si     Si        0.387302399999953    0.709528399999954    0.644739200000004  0.0000
  Si     Si        0.881824400000028    0.566741200000024    0.499266100000000  0.0000
  Si     Si        0.118175599999972    0.415289199999961    0.499266199999965  0.0000
  Si     Si        0.381824400000028    0.915289199999961    0.507278199999973  0.0000
  Si     Si        0.618175599999972    0.066741200000024    0.507278100000008  0.0000
  Si     Si        0.618175599999972    0.915289199999961    0.507278199999973  0.0000
  Si     Si        0.381824400000028    0.066741200000024    0.507278100000008  0.0000
  Si     Si        0.118175599999972    0.566741200000024    0.499266100000000  0.0000
  Si     Si        0.881824400000028    0.415289199999961    0.499266199999965  0.0000
  Si     Si        0.116159700000026    0.417199399999959    0.066925100000049  0.0000
  Si     Si        0.883840299999974    0.564831099999992    0.066925100000049  0.0000
  Si     Si        0.616159700000026    0.064831000000027    0.939619099999959  0.0000
  Si     Si        0.383840299999974    0.917199299999993    0.939619200000038  0.0000
  Si     Si        0.383840400000054    0.064831000000027    0.939619099999959  0.0000
  Si     Si        0.616159700000026    0.917199299999993    0.939619200000038  0.0000
  Si     Si        0.883840299999974    0.417199399999959    0.066925100000049  0.0000
  Si     Si        0.116159700000026    0.564831099999992    0.066925100000049  0.0000
  Si     Si        0.115906200000040    0.565384699999981    0.929259200000047  0.0000
  Si     Si        0.884093799999960    0.416645700000004    0.929259200000047  0.0000
  Si     Si        0.615906200000040    0.916645700000004    0.077285200000006  0.0000
  Si     Si        0.384093799999960    0.065384699999981    0.077285100000040  0.0000
  Si     Si        0.384093699999994    0.916645700000004    0.077285200000006  0.0000
  Si     Si        0.615906200000040    0.065384699999981    0.077285100000040  0.0000
  Si     Si        0.884093799999960    0.565384699999981    0.929259200000047  0.0000
  Si     Si        0.115906200000040    0.416645700000004    0.929259200000047  0.0000
  Si     Si        0.114981700000044    0.564570000000003    0.721427400000039  0.0000
  Si     Si        0.885018299999956    0.417460399999982    0.721427400000039  0.0000
  Si     Si        0.614981700000044    0.917460399999982    0.285117000000014  0.0000
  Si     Si        0.385018100000025    0.064569900000038    0.285116700000003  0.0000
  Si     Si        0.385018299999956    0.917460399999982    0.285117000000014  0.0000
  Si     Si        0.614981899999975    0.064569900000038    0.285116700000003  0.0000
  Si     Si        0.885018299999956    0.564570000000003    0.721427400000039  0.0000
  Si     Si        0.114981700000044    0.417460399999982    0.721427400000039  0.0000
  Si     Si        0.113654300000007    0.416463000000022    0.281046500000002  0.0000
  Si     Si        0.886345699999993    0.565567500000043    0.281046599999968  0.0000
  Si     Si        0.613654300000007    0.065567500000043    0.725497700000005  0.0000
  Si     Si        0.386345699999993    0.916462900000056    0.725497799999971  0.0000
  Si     Si        0.386345699999993    0.065567500000043    0.725497700000005  0.0000
  Si     Si        0.613654300000007    0.916462900000056    0.725497799999971  0.0000
  Si     Si        0.886345699999993    0.416463000000022    0.281046500000002  0.0000
  Si     Si        0.113654300000007    0.565567500000043    0.281046599999968  0.0000
  Si     Si        0.614574199999993    0.713132599999994    0.785146199999986  0.0000
  Si     Si        0.385425800000007    0.268897799999991    0.785146299999951  0.0000
  Si     Si        0.114574199999993    0.768897899999956    0.221398099999988  0.0000
  Si     Si        0.885425800000007    0.213132699999960    0.221397900000056  0.0000
  Si     Si        0.885425800000007    0.768897899999956    0.221398099999988  0.0000
  Si     Si        0.114574199999993    0.213132699999960    0.221397900000056  0.0000
  Si     Si        0.385425800000007    0.713132599999994    0.785146199999986  0.0000
  Si     Si        0.614574199999993    0.268897799999991    0.785146299999951  0.0000
  Si     Si        0.614164299999970    0.282425500000045    0.213611700000001  0.0000
  Si     Si        0.385835700000030    0.699604799999975    0.213611700000001  0.0000
  Si     Si        0.114164299999970    0.199604900000054    0.792932599999972  0.0000
  Si     Si        0.885835700000030    0.782425600000010    0.792932599999972  0.0000
  Si     Si        0.885835700000030    0.199604900000054    0.792932599999972  0.0000
  Si     Si        0.114164299999970    0.782425600000010    0.792932599999972  0.0000
  Si     Si        0.385835700000030    0.282425500000045    0.213611700000001  0.0000
  Si     Si        0.614164299999970    0.699604799999975    0.213611700000001  0.0000
  O      O         0.627704300000005    0.198790700000018    0.377760500000022  0.0000
  O      O         0.372295699999995    0.783239699999967    0.377760500000022  0.0000
  O      O         0.127704300000005    0.283239699999967    0.628783799999951  0.0000
  O      O         0.872295699999995    0.698790700000018    0.628783799999951  0.0000
  O      O         0.872295699999995    0.283239699999967    0.628783799999951  0.0000
  O      O         0.127704399999971    0.698790700000018    0.628783799999951  0.0000
  O      O         0.372295699999995    0.198790700000018    0.377760500000022  0.0000
  O      O         0.627704300000005    0.783239699999967    0.377760500000022  0.0000
  O      O         0.628725899999949    0.778518100000042    0.612651099999994  0.0000
  O      O         0.371274100000051    0.203512300000057    0.612651199999959  0.0000
  O      O         0.128725899999949    0.703512199999977    0.393893199999980  0.0000
  O      O         0.871274100000051    0.278518100000042    0.393893100000014  0.0000
  O      O         0.871274100000051    0.703512199999977    0.393893199999980  0.0000
  O      O         0.128725899999949    0.278518100000042    0.393893100000014  0.0000
  O      O         0.371274100000051    0.778518100000042    0.612651099999994  0.0000
  O      O         0.628725799999984    0.203512300000057    0.612651199999959  0.0000
  O      O         0.813987099999963    0.156901700000049    0.391433300000017  0.0000
  O      O         0.186012799999958    0.825128599999971    0.391433600000028  0.0000
  O      O         0.313987200000042    0.325128599999971    0.615110899999991  0.0000
  O      O         0.686012900000037    0.656901800000014    0.615110800000025  0.0000
  O      O         0.686012900000037    0.325128599999971    0.615110899999991  0.0000
  O      O         0.313987099999963    0.656901800000014    0.615110800000025  0.0000
  O      O         0.186012900000037    0.156901700000049    0.391433300000017  0.0000
  O      O         0.813987099999963    0.825128599999971    0.391433600000028  0.0000
  O      O         0.814813800000024    0.820256800000038    0.617264699999964  0.0000
  O      O         0.185186199999976    0.161773599999947    0.617264699999964  0.0000
  O      O         0.314813800000024    0.661773599999947    0.389279600000009  0.0000
  O      O         0.685186300000055    0.320256900000004    0.389279600000009  0.0000
  O      O         0.685186100000010    0.661773599999947    0.389279600000009  0.0000
  O      O         0.314813800000024    0.320256900000004    0.389279600000009  0.0000
  O      O         0.185186199999976    0.820256800000038    0.617264699999964  0.0000
  O      O         0.814813800000024    0.161773599999947    0.617264699999964  0.0000
  O      O         0.667906600000038    0.108270700000048    0.455252299999984  0.0000
  O      O         0.332093399999962    0.873759700000051    0.455252399999949  0.0000
  O      O         0.167906700000003    0.373759700000051    0.551291999999989  0.0000
  O      O         0.832093500000042    0.608270599999969    0.551291999999989  0.0000
  O      O         0.832093299999997    0.373759700000051    0.551291999999989  0.0000
  O      O         0.167906499999958    0.608270599999969    0.551291999999989  0.0000
  O      O         0.332093399999962    0.108270700000048    0.455252299999984  0.0000
  O      O         0.667906600000038    0.873759700000051    0.455252399999949  0.0000
  O      O         0.671776700000009    0.892781700000000    0.567798799999991  0.0000
  O      O         0.328223299999991    0.089248699999985    0.567798700000026  0.0000
  O      O         0.171776700000009    0.589248699999985    0.438745599999947  0.0000
  O      O         0.828223500000036    0.392781600000035    0.438745599999947  0.0000
  O      O         0.828223200000025    0.589248699999985    0.438745599999947  0.0000
  O      O         0.171776499999964    0.392781600000035    0.438745599999947  0.0000
  O      O         0.328223299999991    0.892781700000000    0.567798799999991  0.0000
  O      O         0.671776700000009    0.089248699999985    0.567798700000026  0.0000
  O      O         0.681701699999962    0.082700400000022    0.341959699999961  0.0000
  O      O         0.318297799999982    0.899329999999964    0.341959699999961  0.0000
  O      O         0.181701999999973    0.399329999999964    0.664584600000012  0.0000
  O      O         0.818297899999948    0.582700400000022    0.664584600000012  0.0000
  O      O         0.818298000000027    0.399329999999964    0.664584600000012  0.0000
  O      O         0.181702100000052    0.582700400000022    0.664584600000012  0.0000
  O      O         0.318298300000038    0.082700400000022    0.341959699999961  0.0000
  O      O         0.681702200000018    0.899329999999964    0.341959699999961  0.0000
  O      O         0.683295300000054    0.875540600000022    0.682269300000030  0.0000
  O      O         0.316704699999946    0.106489799999963    0.682269199999951  0.0000
  O      O         0.183295400000020    0.606489799999963    0.324275100000023  0.0000
  O      O         0.816704800000025    0.375540600000022    0.324274999999943  0.0000
  O      O         0.816704599999980    0.606489799999963    0.324275100000023  0.0000
  O      O         0.183295199999975    0.375540600000022    0.324274999999943  0.0000
  O      O         0.316704699999946    0.875540600000022    0.682269300000030  0.0000
  O      O         0.683295400000020    0.106489799999963    0.682269199999951  0.0000
  O      O         0.185493500000007    0.613214200000016    0.890983200000051  0.0000
  O      O         0.814506499999993    0.368816300000049    0.890983200000051  0.0000
  O      O         0.685493500000007    0.868816400000014    0.115561299999968  0.0000
  O      O         0.314506400000027    0.113214200000016    0.115560999999957  0.0000
  O      O         0.314506499999993    0.868816400000014    0.115561299999968  0.0000
  O      O         0.685493500000007    0.113214200000016    0.115560999999957  0.0000
  O      O         0.814506499999993    0.613214200000016    0.890983200000051  0.0000
  O      O         0.185493500000007    0.368816300000049    0.890983200000051  0.0000
  O      O         0.181313700000032    0.367260399999964    0.106097500000033  0.0000
  O      O         0.818686400000047    0.614770199999953    0.106097500000033  0.0000
  O      O         0.681313700000032    0.114770000000021    0.900446800000054  0.0000
  O      O         0.318686400000047    0.867260200000032    0.900446800000054  0.0000
  O      O         0.318686299999968    0.114770000000021    0.900446800000054  0.0000
  O      O         0.681313599999953    0.867260200000032    0.900446800000054  0.0000
  O      O         0.818686299999968    0.367260399999964    0.106097500000033  0.0000
  O      O         0.181313599999953    0.614770199999953    0.106097500000033  0.0000
  O      O         0.141381400000000    0.606273800000054    0.778370300000006  0.0000
  O      O         0.858618399999955    0.375756700000011    0.778370300000006  0.0000
  O      O         0.641380899999945    0.875756400000000    0.228174100000047  0.0000
  O      O         0.358617800000047    0.106273600000009    0.228173900000002  0.0000
  O      O         0.358619100000055    0.875756400000000    0.228174100000047  0.0000
  O      O         0.641382199999953    0.106273600000009    0.228173900000002  0.0000
  O      O         0.858618600000000    0.606273800000054    0.778370300000006  0.0000
  O      O         0.141381499999966    0.375756700000011    0.778370300000006  0.0000
  O      O         0.151013000000034    0.405307799999946    0.213770599999975  0.0000
  O      O         0.848987500000021    0.576722900000050    0.213770599999975  0.0000
  O      O         0.651012700000024    0.076722799999970    0.792773699999998  0.0000
  O      O         0.348987400000055    0.905307699999980    0.792773699999998  0.0000
  O      O         0.348987299999976    0.076722799999970    0.792773699999998  0.0000
  O      O         0.651012599999945    0.905307699999980    0.792773699999998  0.0000
  O      O         0.848986999999966    0.405307799999946    0.213770599999975  0.0000
  O      O         0.151012499999979    0.576722900000050    0.213770599999975  0.0000
  O      O         0.312973400000033    0.658551600000010    0.813112100000012  0.0000
  O      O         0.687026599999967    0.323478799999975    0.813112199999978  0.0000
  O      O         0.812973299999953    0.823478900000055    0.193432400000006  0.0000
  O      O         0.187026400000036    0.158551800000055    0.193431899999950  0.0000
  O      O         0.187026700000047    0.823478900000055    0.193432400000006  0.0000
  O      O         0.812973599999964    0.158551800000055    0.193431899999950  0.0000
  O      O         0.687026599999967    0.658551600000010    0.813112100000012  0.0000
  O      O         0.312973400000033    0.323478799999975    0.813112199999978  0.0000
  O      O         0.314471499999968    0.338879600000041    0.188243400000033  0.0000
  O      O         0.685528599999998    0.643150699999978    0.188243599999964  0.0000
  O      O         0.814471400000002    0.143150699999978    0.818300799999975  0.0000
  O      O         0.185528599999998    0.838879700000007    0.818300799999975  0.0000
  O      O         0.185528599999998    0.143150699999978    0.818300799999975  0.0000
  O      O         0.814471400000002    0.838879700000007    0.818300799999975  0.0000
  O      O         0.685528500000032    0.338879600000041    0.188243400000033  0.0000
  O      O         0.314471400000002    0.643150699999978    0.188243599999964  0.0000
  O      O         0.138411399999995    0.717501100000050    0.829712299999983  0.0000
  O      O         0.861588500000039    0.264529400000015    0.829712299999983  0.0000
  O      O         0.638411499999961    0.764529199999970    0.176831900000025  0.0000
  O      O         0.361588699999970    0.217500999999970    0.176832099999956  0.0000
  O      O         0.361588399999960    0.764529199999970    0.176831900000025  0.0000
  O      O         0.638411300000030    0.217500999999970    0.176832099999956  0.0000
  O      O         0.861588500000039    0.717501100000050    0.829712299999983  0.0000
  O      O         0.138411399999995    0.264529400000015    0.829712299999983  0.0000
  O      O         0.136492999999973    0.281453899999974    0.190305599999988  0.0000
  O      O         0.863506799999982    0.700576800000022    0.190305599999988  0.0000
  O      O         0.636493100000052    0.200576700000056    0.816238799999951  0.0000
  O      O         0.363506899999948    0.781453700000043    0.816238600000020  0.0000
  O      O         0.363506899999948    0.200576700000056    0.816238799999951  0.0000
  O      O         0.636493100000052    0.781453700000043    0.816238600000020  0.0000
  O      O         0.863507000000027    0.281453899999974    0.190305599999988  0.0000
  O      O         0.136493200000018    0.700576800000022    0.190305599999988  0.0000
  O      O         0.362139100000036    0.711886199999981    0.283257499999991  0.0000
  O      O         0.637860899999964    0.270144299999970    0.283257499999991  0.0000
  O      O         0.862139200000001    0.770144299999970    0.723286799999983  0.0000
  O      O         0.137860899999964    0.211886100000015    0.723286799999983  0.0000
  O      O         0.137860899999964    0.770144299999970    0.723286799999983  0.0000
  O      O         0.862139100000036    0.211886100000015    0.723286799999983  0.0000
  O      O         0.637860899999964    0.711886199999981    0.283257499999991  0.0000
  O      O         0.362139100000036    0.270144299999970    0.283257499999991  0.0000
  O      O         0.362434000000007    0.263386200000014    0.714695200000051  0.0000
  O      O         0.637565999999993    0.718644100000006    0.714695000000006  0.0000
  O      O         0.862433900000042    0.218644100000006    0.291849100000036  0.0000
  O      O         0.137565900000027    0.763386200000014    0.291849299999967  0.0000
  O      O         0.137566099999958    0.218644100000006    0.291849100000036  0.0000
  O      O         0.862434099999973    0.763386200000014    0.291849299999967  0.0000
  O      O         0.637565999999993    0.263386200000014    0.714695200000051  0.0000
  O      O         0.362434000000007    0.718644100000006    0.714695000000006  0.0000
  O      O         0.134893000000034    0.399039499999958    0.998128700000052  0.0000
  O      O         0.865106900000001    0.582990999999993    0.998128700000052  0.0000
  O      O         0.634892899999954    0.082990900000027    0.008415600000035  0.0000
  O      O         0.365106800000035    0.899039399999992    0.008415700000000  0.0000
  O      O         0.365107100000046    0.082990900000027    0.008415600000035  0.0000
  O      O         0.634893199999965    0.899039399999992    0.008415700000000  0.0000
  O      O         0.865106999999966    0.399039499999958    0.998128700000052  0.0000
  O      O         0.134893099999999    0.582990999999993    0.998128700000052  0.0000
  O      O         0.500000000000000    0.688144599999987    0.366035300000021  0.0000
  O      O         0.500000000000000    0.293885899999964    0.366035200000056  0.0000
  O      O         0.000000000000000    0.793885899999964    0.640508999999952  0.0000
  O      O         0.000000000000000    0.188144599999987    0.640508999999952  0.0000
  O      O         0.500000000000000    0.296665299999972    0.633870300000012  0.0000
  O      O         0.500000000000000    0.685365100000013    0.633870200000047  0.0000
  O      O         0.000000000000000    0.185365100000013    0.372673899999995  0.0000
  O      O         0.000000000000000    0.796665299999972    0.372674200000006  0.0000
  O      O         0.500000000000000    0.692630600000030    0.797091399999999  0.0000
  O      O         0.500000000000000    0.289399699999990    0.797091399999999  0.0000
  O      O         0.000000000000000    0.789399799999956    0.209453000000053  0.0000
  O      O         0.000000000000000    0.192630799999961    0.209452800000008  0.0000
  O      O         0.500000000000000    0.303814500000044    0.203076699999997  0.0000
  O      O         0.500000000000000    0.678215799999975    0.203076699999997  0.0000
  O      O         0.000000000000000    0.178215900000055    0.803467599999976  0.0000
  O      O         0.000000000000000    0.803814600000010    0.803467599999976  0.0000
  O      O         0.860371399999963    0.491015199999993    0.509158200000002  0.0000
  O      O         0.139628600000037    0.491015199999993    0.509158200000002  0.0000
  O      O         0.360371399999963    0.991015199999993    0.497386099999972  0.0000
  O      O         0.639628600000037    0.991015199999993    0.497386099999972  0.0000
  O      O         0.149818099999948    0.491015299999958    0.078870499999994  0.0000
  O      O         0.850181900000052    0.491015299999958    0.078870499999994  0.0000
  O      O         0.649818099999948    0.991015100000027    0.927673799999980  0.0000
  O      O         0.350181900000052    0.991015100000027    0.927673799999980  0.0000
  O      O         0.145557400000030    0.491015299999958    0.916536400000041  0.0000
  O      O         0.854442599999970    0.491015299999958    0.916536400000041  0.0000
  O      O         0.645557400000030    0.991015299999958    0.090007900000046  0.0000
  O      O         0.354442599999970    0.991015299999958    0.090007900000046  0.0000
  O      O         0.136877899999945    0.491015199999993    0.738701900000024  0.0000
  O      O         0.863121999999976    0.491015199999993    0.738701900000024  0.0000
  O      O         0.636878099999990    0.991015100000027    0.267842399999950  0.0000
  O      O         0.363121800000044    0.991015100000027    0.267842399999950  0.0000
  O      O         0.122394500000041    0.491015199999993    0.297752800000012  0.0000
  O      O         0.877605499999959    0.491015199999993    0.297752800000012  0.0000
  O      O         0.622394600000007    0.991015199999993    0.708791600000040  0.0000
  O      O         0.377605399999993    0.991015199999993    0.708791600000040  0.0000
  O      O         0.000000000000000    0.580177800000001    0.495631300000014  0.0000
  O      O         0.000000000000000    0.401852500000018    0.495631499999945  0.0000
  O      O         0.500000000000000    0.901852599999984    0.510912999999960  0.0000
  O      O         0.500000000000000    0.080177800000001    0.510912899999994  0.0000
  O      O         0.000000000000000    0.408875800000033    0.083552299999951  0.0000
  O      O         0.000000000000000    0.573154799999998    0.083552299999951  0.0000
  O      O         0.500000000000000    0.073154599999953    0.922991799999977  0.0000
  O      O         0.500000000000000    0.908875599999988    0.922992199999953  0.0000
  O      O         0.000000000000000    0.576270000000022    0.912103799999954  0.0000
  O      O         0.000000000000000    0.405760500000042    0.912103699999989  0.0000
  O      O         0.500000000000000    0.905760500000042    0.094440500000019  0.0000
  O      O         0.500000000000000    0.076269900000057    0.094440500000019  0.0000
  O      O         0.000000000000000    0.392016600000034    0.288424599999985  0.0000
  O      O         0.000000000000000    0.590013900000031    0.288424999999961  0.0000
  O      O         0.500000000000000    0.090013799999952    0.718119399999978  0.0000
  O      O         0.500000000000000    0.892016600000034    0.718119499999943  0.0000
  O      O         0.000000000000000    0.575960000000009    0.703483499999948  0.0000
  O      O         0.000000000000000    0.406070399999976    0.703483600000027  0.0000
  O      O         0.500000000000000    0.906070699999987    0.303061100000036  0.0000
  O      O         0.500000000000000    0.075960000000009    0.303059999999959  0.0000
