data_ReferenceDataBase/8286937_111
_audit_creation_method             Generated by GULP
_audit_author_name                 Salvador R. G. Balestra
_symmetry_space_group_name_H-M     'P 1             '
_symmetry_Int_Tables_number        1

loop_
_symmetry_equiv_pos_site_id
_symmetry_equiv_pos_as_xyz
   1     +x,+y,+z                
_cell_length_a                       21.9545
_cell_length_b                       20.5954
_cell_length_c                       18.2826
_cell_angle_alpha                   90.0000
_cell_angle_beta                    90.0000
_cell_angle_gamma                   90.0000

loop_
_atom_site_label
_atom_site_type_symbol
_atom_site_fract_x
_atom_site_fract_y
_atom_site_fract_z
_atom_site_charge
  Si     Si        0.002013300000044    0.570198699999992    0.418417200000022  0.0000
  Si     Si        0.002013300000044    0.416261299999974    0.418417200000022  0.0000
  Si     Si        0.002013300000044    0.416261299999974    0.580630599999949  0.0000
  Si     Si        0.002013300000044    0.570198699999992    0.580630599999949  0.0000
  Si     Si        0.502013300000044    0.070198699999992    0.918417200000022  0.0000
  Si     Si        0.502013300000044    0.916261299999974    0.918417200000022  0.0000
  Si     Si        0.502013300000044    0.916261299999974    0.080630599999949  0.0000
  Si     Si        0.502013300000044    0.070198699999992    0.080630599999949  0.0000
  Si     Si        0.070854299999951    0.993230000000040    0.912114599999995  0.0000
  Si     Si        0.933172199999944    0.993230000000040    0.912114599999995  0.0000
  Si     Si        0.070854299999951    0.993230000000040    0.086933300000055  0.0000
  Si     Si        0.933172199999944    0.993230000000040    0.086933300000055  0.0000
  Si     Si        0.570854299999951    0.493230000000040    0.412114599999995  0.0000
  Si     Si        0.433172300000024    0.493230000000040    0.412114599999995  0.0000
  Si     Si        0.570854299999951    0.493230000000040    0.586933300000055  0.0000
  Si     Si        0.433172300000024    0.493230000000040    0.586933300000055  0.0000
  Si     Si        0.072547600000007    0.742682599999966    0.914965299999949  0.0000
  Si     Si        0.931478999999968    0.243777300000033    0.914965299999949  0.0000
  Si     Si        0.072547600000007    0.243777300000033    0.084082500000022  0.0000
  Si     Si        0.931478999999968    0.742682599999966    0.084082500000022  0.0000
  Si     Si        0.931478999999968    0.243777300000033    0.084082500000022  0.0000
  Si     Si        0.072547600000007    0.742682599999966    0.084082500000022  0.0000
  Si     Si        0.931478999999968    0.742682599999966    0.914965299999949  0.0000
  Si     Si        0.072547600000007    0.243777300000033    0.914965299999949  0.0000
  Si     Si        0.572547600000007    0.242682700000046    0.414965299999949  0.0000
  Si     Si        0.431478999999968    0.743777300000033    0.414965299999949  0.0000
  Si     Si        0.572547600000007    0.743777300000033    0.584082500000022  0.0000
  Si     Si        0.431478999999968    0.242682700000046    0.584082500000022  0.0000
  Si     Si        0.431478999999968    0.743777300000033    0.584082500000022  0.0000
  Si     Si        0.572547600000007    0.242682700000046    0.584082500000022  0.0000
  Si     Si        0.431478999999968    0.242682700000046    0.414965299999949  0.0000
  Si     Si        0.572547600000007    0.743777300000033    0.414965299999949  0.0000
  Si     Si        0.233571900000015    0.417822500000057    0.415925199999947  0.0000
  Si     Si        0.770454699999959    0.568637500000023    0.415925199999947  0.0000
  Si     Si        0.233571900000015    0.568637500000023    0.583122600000024  0.0000
  Si     Si        0.770454699999959    0.417822500000057    0.583122600000024  0.0000
  Si     Si        0.770454699999959    0.568637500000023    0.583122600000024  0.0000
  Si     Si        0.233571900000015    0.417822500000057    0.583122600000024  0.0000
  Si     Si        0.770454699999959    0.417822500000057    0.415925199999947  0.0000
  Si     Si        0.233571900000015    0.568637500000023    0.415925199999947  0.0000
  Si     Si        0.733571900000015    0.917822500000057    0.915925199999947  0.0000
  Si     Si        0.270454699999959    0.068637500000023    0.915925300000026  0.0000
  Si     Si        0.733571900000015    0.068637500000023    0.083122600000024  0.0000
  Si     Si        0.270454699999959    0.917822500000057    0.083122600000024  0.0000
  Si     Si        0.270454699999959    0.068637500000023    0.083122600000024  0.0000
  Si     Si        0.733571900000015    0.917822500000057    0.083122600000024  0.0000
  Si     Si        0.270454699999959    0.917822500000057    0.915925300000026  0.0000
  Si     Si        0.733571900000015    0.068637500000023    0.915925199999947  0.0000
  Si     Si        0.862681299999963    0.117174299999988    0.085896599999955  0.0000
  Si     Si        0.141345200000046    0.869285699999978    0.085896599999955  0.0000
  Si     Si        0.862681299999963    0.869285699999978    0.913151200000016  0.0000
  Si     Si        0.141345200000046    0.117174299999988    0.913151200000016  0.0000
  Si     Si        0.141345200000046    0.869285699999978    0.913151200000016  0.0000
  Si     Si        0.862681299999963    0.117174299999988    0.913151200000016  0.0000
  Si     Si        0.141345200000046    0.117174299999988    0.085896599999955  0.0000
  Si     Si        0.862681299999963    0.869285699999978    0.085896599999955  0.0000
  Si     Si        0.362681299999963    0.617174299999988    0.585896599999955  0.0000
  Si     Si        0.641345300000012    0.369285699999978    0.585896599999955  0.0000
  Si     Si        0.362681299999963    0.369285699999978    0.413151200000016  0.0000
  Si     Si        0.641345300000012    0.617174299999988    0.413151200000016  0.0000
  Si     Si        0.641345300000012    0.369285699999978    0.413151200000016  0.0000
  Si     Si        0.362681299999963    0.617174299999988    0.413151200000016  0.0000
  Si     Si        0.641345300000012    0.617174299999988    0.585896599999955  0.0000
  Si     Si        0.362681299999963    0.369285699999978    0.585896599999955  0.0000
  Si     Si        0.429744499999970    0.993230000000040    0.418536700000004  0.0000
  Si     Si        0.574282100000005    0.993230000000040    0.418536700000004  0.0000
  Si     Si        0.429744499999970    0.993230000000040    0.580511200000046  0.0000
  Si     Si        0.574282100000005    0.993230000000040    0.580511200000046  0.0000
  Si     Si        0.929744400000004    0.493230000000040    0.918536700000004  0.0000
  Si     Si        0.074282100000005    0.493230000000040    0.918536700000004  0.0000
  Si     Si        0.929744400000004    0.493230000000040    0.080511200000046  0.0000
  Si     Si        0.074282100000005    0.493230000000040    0.080511200000046  0.0000
  Si     Si        0.930393099999947    0.614592499999958    0.825290900000027  0.0000
  Si     Si        0.073633500000028    0.371867500000008    0.825290900000027  0.0000
  Si     Si        0.930393099999947    0.371867500000008    0.173757000000023  0.0000
  Si     Si        0.073633500000028    0.614592499999958    0.173757000000023  0.0000
  Si     Si        0.073633500000028    0.371867500000008    0.173757000000023  0.0000
  Si     Si        0.930393099999947    0.614592499999958    0.173757000000023  0.0000
  Si     Si        0.073633500000028    0.614592499999958    0.825290900000027  0.0000
  Si     Si        0.930393099999947    0.371867500000008    0.825290900000027  0.0000
  Si     Si        0.430393099999947    0.114592499999958    0.325290900000027  0.0000
  Si     Si        0.573633500000028    0.871867500000008    0.325290900000027  0.0000
  Si     Si        0.430393099999947    0.871867500000008    0.673757000000023  0.0000
  Si     Si        0.573633399999949    0.114592499999958    0.673757000000023  0.0000
  Si     Si        0.573633399999949    0.871867500000008    0.673757000000023  0.0000
  Si     Si        0.430393099999947    0.114592499999958    0.673757000000023  0.0000
  Si     Si        0.573633500000028    0.114592499999958    0.325290900000027  0.0000
  Si     Si        0.430393099999947    0.871867500000008    0.325290900000027  0.0000
  Si     Si        0.615555900000004    0.916624700000057    0.175138400000037  0.0000
  Si     Si        0.388470600000005    0.069835399999988    0.175138400000037  0.0000
  Si     Si        0.615555900000004    0.069835399999988    0.823909500000013  0.0000
  Si     Si        0.388470600000005    0.916624700000057    0.823909500000013  0.0000
  Si     Si        0.388470600000005    0.069835399999988    0.823909500000013  0.0000
  Si     Si        0.615555900000004    0.916624700000057    0.823909500000013  0.0000
  Si     Si        0.388470600000005    0.916624700000057    0.175138400000037  0.0000
  Si     Si        0.615555900000004    0.069835399999988    0.175138400000037  0.0000
  Si     Si        0.115555900000004    0.416624599999977    0.675138400000037  0.0000
  Si     Si        0.888470600000005    0.569835399999988    0.675138400000037  0.0000
  Si     Si        0.115555900000004    0.569835399999988    0.323909400000048  0.0000
  Si     Si        0.888470600000005    0.416624599999977    0.323909400000048  0.0000
  Si     Si        0.888470600000005    0.569835399999988    0.323909400000048  0.0000
  Si     Si        0.115555900000004    0.416624599999977    0.323909400000048  0.0000
  Si     Si        0.888470600000005    0.416624599999977    0.675138400000037  0.0000
  Si     Si        0.115555900000004    0.569835399999988    0.675138400000037  0.0000
  O      O         0.061977500000012    0.594281300000034    0.376753300000018  0.0000
  O      O         0.942048999999997    0.392178800000011    0.376753300000018  0.0000
  O      O         0.061977500000012    0.392178800000011    0.622294499999953  0.0000
  O      O         0.942048999999997    0.594281300000034    0.622294499999953  0.0000
  O      O         0.942048999999997    0.392178800000011    0.622294499999953  0.0000
  O      O         0.061977500000012    0.594281300000034    0.622294499999953  0.0000
  O      O         0.942048999999997    0.594281300000034    0.376753300000018  0.0000
  O      O         0.061977500000012    0.392178800000011    0.376753300000018  0.0000
  O      O         0.561977599999977    0.094281199999955    0.876753300000018  0.0000
  O      O         0.442048999999997    0.892178800000011    0.876753300000018  0.0000
  O      O         0.561977599999977    0.892178800000011    0.122294499999953  0.0000
  O      O         0.442048999999997    0.094281199999955    0.122294499999953  0.0000
  O      O         0.442048999999997    0.892178800000011    0.122294499999953  0.0000
  O      O         0.561977599999977    0.094281199999955    0.122294499999953  0.0000
  O      O         0.442048999999997    0.094281199999955    0.876753300000018  0.0000
  O      O         0.561977599999977    0.892178800000011    0.876753300000018  0.0000
  O      O         0.002013300000044    0.493230000000040    0.424042900000018  0.0000
  O      O         0.002013300000044    0.493230000000040    0.575004899999954  0.0000
  O      O         0.502013300000044    0.993230000000040    0.924042900000018  0.0000
  O      O         0.502013300000044    0.993230000000040    0.075005000000033  0.0000
  O      O         0.002013300000044    0.600820099999964    0.499523899999986  0.0000
  O      O         0.002013300000044    0.385639900000001    0.499523899999986  0.0000
  O      O         0.502013300000044    0.100820099999964    0.999523899999986  0.0000
  O      O         0.502013300000044    0.885639900000001    0.999523899999986  0.0000
  O      O         0.103902400000038    0.929546999999957    0.879523899999981  0.0000
  O      O         0.900124099999971    0.056913000000009    0.879523899999981  0.0000
  O      O         0.103902400000038    0.056913000000009    0.119523899999990  0.0000
  O      O         0.900124099999971    0.929546999999957    0.119523899999990  0.0000
  O      O         0.900124099999971    0.056913000000009    0.119523899999990  0.0000
  O      O         0.103902400000038    0.929546999999957    0.119523899999990  0.0000
  O      O         0.900124099999971    0.929546999999957    0.879523899999981  0.0000
  O      O         0.103902400000038    0.056913000000009    0.879523899999981  0.0000
  O      O         0.603902400000038    0.429546999999957    0.379523899999981  0.0000
  O      O         0.400124200000050    0.556913000000009    0.379523899999981  0.0000
  O      O         0.603902400000038    0.556913000000009    0.619523899999990  0.0000
  O      O         0.400124200000050    0.429546999999957    0.619523899999990  0.0000
  O      O         0.400124200000050    0.556913000000009    0.619523899999990  0.0000
  O      O         0.603902400000038    0.429546999999957    0.619523899999990  0.0000
  O      O         0.400124200000050    0.429546999999957    0.379523899999981  0.0000
  O      O         0.603902400000038    0.556913000000009    0.379523899999981  0.0000
  O      O         0.002013300000044    0.993230000000040    0.883486400000038  0.0000
  O      O         0.002013300000044    0.993230000000040    0.115561400000047  0.0000
  O      O         0.502013300000044    0.493230000000040    0.383486500000004  0.0000
  O      O         0.502013300000044    0.493230000000040    0.615561400000047  0.0000
  O      O         0.073667900000032    0.993230000000040    0.999523899999986  0.0000
  O      O         0.930358599999977    0.993230000000040    0.999523899999986  0.0000
  O      O         0.573667900000032    0.493230000000040    0.499523899999986  0.0000
  O      O         0.430358599999977    0.493230000000040    0.499523899999986  0.0000
  O      O         0.113549700000021    0.801690000000008    0.884518699999944  0.0000
  O      O         0.890476799999988    0.184769999999958    0.884518699999944  0.0000
  O      O         0.113549700000021    0.184769999999958    0.114529100000027  0.0000
  O      O         0.890476799999988    0.801690000000008    0.114529100000027  0.0000
  O      O         0.890476799999988    0.184769999999958    0.114529100000027  0.0000
  O      O         0.113549700000021    0.801690000000008    0.114529100000027  0.0000
  O      O         0.890476799999988    0.801690000000008    0.884518699999944  0.0000
  O      O         0.113549700000021    0.184769999999958    0.884518699999944  0.0000
  O      O         0.613549700000021    0.301690000000008    0.384518699999944  0.0000
  O      O         0.390476899999953    0.684769999999958    0.384518699999944  0.0000
  O      O         0.613549700000021    0.684769999999958    0.614529100000027  0.0000
  O      O         0.390476899999953    0.301690000000008    0.614529100000027  0.0000
  O      O         0.390476899999953    0.684769999999958    0.614529100000027  0.0000
  O      O         0.613549700000021    0.301690000000008    0.614529100000027  0.0000
  O      O         0.390476899999953    0.301690000000008    0.384518699999944  0.0000
  O      O         0.613549700000021    0.684769999999958    0.384518699999944  0.0000
  O      O         0.089089700000045    0.681512099999964    0.865163299999949  0.0000
  O      O         0.914936799999964    0.304947900000002    0.865163299999949  0.0000
  O      O         0.089089700000045    0.304947900000002    0.133884500000022  0.0000
  O      O         0.914936799999964    0.681512099999964    0.133884500000022  0.0000
  O      O         0.914936799999964    0.304947900000002    0.133884500000022  0.0000
  O      O         0.089089700000045    0.681512099999964    0.133884500000022  0.0000
  O      O         0.914936799999964    0.681512099999964    0.865163299999949  0.0000
  O      O         0.089089700000045    0.304947900000002    0.865163299999949  0.0000
  O      O         0.589089800000011    0.181512099999964    0.365163299999949  0.0000
  O      O         0.414936799999964    0.804947900000002    0.365163299999949  0.0000
  O      O         0.589089800000011    0.804947900000002    0.633884500000022  0.0000
  O      O         0.414936799999964    0.181512099999964    0.633884500000022  0.0000
  O      O         0.414936799999964    0.804947900000002    0.633884500000022  0.0000
  O      O         0.589089800000011    0.181512099999964    0.633884500000022  0.0000
  O      O         0.414936799999964    0.181512099999964    0.365163299999949  0.0000
  O      O         0.589089800000011    0.804947900000002    0.365163299999949  0.0000
  O      O         0.002013300000044    0.762294200000042    0.906777300000044  0.0000
  O      O         0.002013300000044    0.224165800000037    0.906777300000044  0.0000
  O      O         0.002013300000044    0.224165800000037    0.092270500000041  0.0000
  O      O         0.002013300000044    0.762294200000042    0.092270500000041  0.0000
  O      O         0.502013300000044    0.262294200000042    0.406777300000044  0.0000
  O      O         0.502013300000044    0.724165800000037    0.406777300000044  0.0000
  O      O         0.502013300000044    0.724165800000037    0.592270500000041  0.0000
  O      O         0.502013300000044    0.262294200000042    0.592270500000041  0.0000
  O      O         0.087124300000028    0.725825399999962    0.999523899999986  0.0000
  O      O         0.916902299999947    0.260634699999969    0.999523899999986  0.0000
  O      O         0.087124300000028    0.260634699999969    0.999523899999986  0.0000
  O      O         0.916902299999947    0.725825399999962    0.999523899999986  0.0000
  O      O         0.587124300000028    0.225825399999962    0.499523899999986  0.0000
  O      O         0.416902299999947    0.760634699999969    0.499523899999986  0.0000
  O      O         0.587124300000028    0.760634699999969    0.499523899999986  0.0000
  O      O         0.416902299999947    0.225825399999962    0.499523899999986  0.0000
  O      O         0.214152399999989    0.402746500000035    0.499523899999986  0.0000
  O      O         0.789874199999986    0.583713500000044    0.499523899999986  0.0000
  O      O         0.214152399999989    0.583713500000044    0.499523899999986  0.0000
  O      O         0.789874199999986    0.402746500000035    0.499523899999986  0.0000
  O      O         0.714152399999989    0.902746500000035    0.999523899999986  0.0000
  O      O         0.289874199999986    0.083713500000044    0.999523899999986  0.0000
  O      O         0.714152399999989    0.083713500000044    0.999523899999986  0.0000
  O      O         0.289874199999986    0.902746500000035    0.999523899999986  0.0000
  O      O         0.251522300000033    0.493230000000040    0.408869999999979  0.0000
  O      O         0.752504199999976    0.493230000000040    0.408869999999979  0.0000
  O      O         0.251522300000033    0.493230000000040    0.590177799999992  0.0000
  O      O         0.752504199999976    0.493230000000040    0.590177799999992  0.0000
  O      O         0.751522399999999    0.993230000000040    0.908869999999979  0.0000
  O      O         0.252504199999976    0.993230000000040    0.908869999999979  0.0000
  O      O         0.751522399999999    0.993230000000040    0.090177799999992  0.0000
  O      O         0.252504199999976    0.993230000000040    0.090177799999992  0.0000
  O      O         0.291667899999993    0.375084399999992    0.391740600000048  0.0000
  O      O         0.712358699999982    0.611375599999974    0.391740600000048  0.0000
  O      O         0.291667899999993    0.611375599999974    0.607307300000002  0.0000
  O      O         0.712358699999982    0.375084399999992    0.607307300000002  0.0000
  O      O         0.712358699999982    0.611375599999974    0.607307300000002  0.0000
  O      O         0.291667899999993    0.375084399999992    0.607307300000002  0.0000
  O      O         0.712358699999982    0.375084399999992    0.391740600000048  0.0000
  O      O         0.291667899999993    0.611375599999974    0.391740600000048  0.0000
  O      O         0.791667899999993    0.875084399999992    0.891740600000048  0.0000
  O      O         0.212358699999982    0.111375599999974    0.891740600000048  0.0000
  O      O         0.791667899999993    0.111375599999974    0.107307300000002  0.0000
  O      O         0.212358699999982    0.875084399999992    0.107307300000002  0.0000
  O      O         0.212358699999982    0.111375599999974    0.107307300000002  0.0000
  O      O         0.791667899999993    0.875084399999992    0.107307300000002  0.0000
  O      O         0.212358699999982    0.875084399999992    0.891740600000048  0.0000
  O      O         0.791667899999993    0.111375599999974    0.891740600000048  0.0000
  O      O         0.178918999999951    0.399171799999976    0.362339600000041  0.0000
  O      O         0.825107600000024    0.587288199999989    0.362339600000041  0.0000
  O      O         0.178918999999951    0.587288199999989    0.636708200000044  0.0000
  O      O         0.825107600000024    0.399171799999976    0.636708200000044  0.0000
  O      O         0.825107600000024    0.587288199999989    0.636708200000044  0.0000
  O      O         0.178918999999951    0.399171799999976    0.636708200000044  0.0000
  O      O         0.825107600000024    0.399171799999976    0.362339600000041  0.0000
  O      O         0.178918999999951    0.587288199999989    0.362339600000041  0.0000
  O      O         0.678918999999951    0.899171799999976    0.862339700000007  0.0000
  O      O         0.325107600000024    0.087288199999989    0.862339700000007  0.0000
  O      O         0.678918999999951    0.087288199999989    0.136708200000044  0.0000
  O      O         0.325107600000024    0.899171799999976    0.136708200000044  0.0000
  O      O         0.325107600000024    0.087288199999989    0.136708200000044  0.0000
  O      O         0.678918999999951    0.899171799999976    0.136708200000044  0.0000
  O      O         0.325107600000024    0.899171799999976    0.862339700000007  0.0000
  O      O         0.678918999999951    0.087288199999989    0.862339700000007  0.0000
  O      O         0.870539200000053    0.114478400000053    0.999523899999986  0.0000
  O      O         0.133487299999956    0.871981600000026    0.999523899999986  0.0000
  O      O         0.870539200000053    0.871981600000026    0.999523899999986  0.0000
  O      O         0.133487299999956    0.114478400000053    0.999523899999986  0.0000
  O      O         0.370539200000053    0.614478299999973    0.499523899999986  0.0000
  O      O         0.633487299999956    0.371981600000026    0.499523899999986  0.0000
  O      O         0.370539200000053    0.371981600000026    0.499523899999986  0.0000
  O      O         0.633487299999956    0.614478299999973    0.499523899999986  0.0000
  O      O         0.406825000000026    0.929352200000039    0.377161799999953  0.0000
  O      O         0.597201599999948    0.057107800000040    0.377161799999953  0.0000
  O      O         0.406825000000026    0.057107800000040    0.621886000000018  0.0000
  O      O         0.597201599999948    0.929352200000039    0.621886000000018  0.0000
  O      O         0.597201599999948    0.057107800000040    0.621886000000018  0.0000
  O      O         0.406825000000026    0.929352200000039    0.621886000000018  0.0000
  O      O         0.597201599999948    0.929352200000039    0.377161799999953  0.0000
  O      O         0.406825000000026    0.057107800000040    0.377161799999953  0.0000
  O      O         0.906825000000026    0.429352200000039    0.877161799999953  0.0000
  O      O         0.097201599999948    0.557107800000040    0.877161900000033  0.0000
  O      O         0.906825000000026    0.557107800000040    0.121886000000018  0.0000
  O      O         0.097201599999948    0.429352200000039    0.121886000000018  0.0000
  O      O         0.097201599999948    0.557107800000040    0.121886000000018  0.0000
  O      O         0.906825000000026    0.429352200000039    0.121886000000018  0.0000
  O      O         0.097201599999948    0.429352200000039    0.877161900000033  0.0000
  O      O         0.906825000000026    0.557107800000040    0.877161799999953  0.0000
  O      O         0.502013300000044    0.993230000000040    0.423857500000054  0.0000
  O      O         0.502013300000044    0.993230000000040    0.575190399999997  0.0000
  O      O         0.002013300000044    0.493230000000040    0.923857500000054  0.0000
  O      O         0.002013300000044    0.493230000000040    0.075190399999997  0.0000
  O      O         0.401042599999982    0.993230000000040    0.499523899999986  0.0000
  O      O         0.602983999999992    0.993230000000040    0.499523899999986  0.0000
  O      O         0.901042599999982    0.493230000000040    0.999523899999986  0.0000
  O      O         0.102983900000027    0.493230000000040    0.999523899999986  0.0000
  O      O         0.893036800000004    0.610124400000018    0.750008900000012  0.0000
  O      O         0.110989799999970    0.376335599999948    0.750008900000012  0.0000
  O      O         0.893036800000004    0.376335599999948    0.249038899999960  0.0000
  O      O         0.110989799999970    0.610124400000018    0.249038899999960  0.0000
  O      O         0.110989799999970    0.376335599999948    0.249038899999960  0.0000
  O      O         0.893036800000004    0.610124400000018    0.249038899999960  0.0000
  O      O         0.110989799999970    0.610124400000018    0.750008900000012  0.0000
  O      O         0.893036800000004    0.376335599999948    0.750008900000012  0.0000
  O      O         0.393036800000004    0.110124400000018    0.250008900000012  0.0000
  O      O         0.610989799999970    0.876335599999948    0.250008900000012  0.0000
  O      O         0.393036800000004    0.876335599999948    0.749038899999960  0.0000
  O      O         0.610989799999970    0.110124400000018    0.749038899999960  0.0000
  O      O         0.610989799999970    0.876335599999948    0.749038899999960  0.0000
  O      O         0.393036800000004    0.110124400000018    0.749038899999960  0.0000
  O      O         0.610989799999970    0.110124400000018    0.250008900000012  0.0000
  O      O         0.393036800000004    0.876335599999948    0.250008900000012  0.0000
  O      O         0.002013300000044    0.606999900000005    0.808474499999988  0.0000
  O      O         0.002013300000044    0.379460200000040    0.808474499999988  0.0000
  O      O         0.002013300000044    0.379460200000040    0.190573399999948  0.0000
  O      O         0.002013300000044    0.606999900000005    0.190573399999948  0.0000
  O      O         0.502013300000044    0.106999900000005    0.308474499999988  0.0000
  O      O         0.502013300000044    0.879460200000040    0.308474499999988  0.0000
  O      O         0.502013300000044    0.879460200000040    0.690573299999983  0.0000
  O      O         0.502013300000044    0.106999900000005    0.690573299999983  0.0000
  O      O         0.609196500000053    0.993230000000040    0.191537799999992  0.0000
  O      O         0.394829999999956    0.993230000000040    0.191537799999992  0.0000
  O      O         0.609196500000053    0.993230000000040    0.807509999999979  0.0000
  O      O         0.394829999999956    0.993230000000040    0.807509999999979  0.0000
  O      O         0.109196600000018    0.493230000000040    0.691537899999958  0.0000
  O      O         0.894829999999956    0.493230000000040    0.691537899999958  0.0000
  O      O         0.109196600000018    0.493230000000040    0.307509999999979  0.0000
  O      O         0.894829999999956    0.493230000000040    0.307509999999979  0.0000
