data_ReferenceDataBase/8286937_111
_audit_creation_method             Generated by GULP
_audit_author_name                 Salvador R. G. Balestra
_symmetry_space_group_name_H-M     'P 1             '
_symmetry_Int_Tables_number        1

loop_
_symmetry_equiv_pos_site_id
_symmetry_equiv_pos_as_xyz
   1     +x,+y,+z                
_cell_length_a                       21.9545
_cell_length_b                       20.5954
_cell_length_c                       18.2826
_cell_angle_alpha                   90.0000
_cell_angle_beta                    90.0000
_cell_angle_gamma                   90.0000

loop_
_atom_site_label
_atom_site_type_symbol
_atom_site_fract_x
_atom_site_fract_y
_atom_site_fract_z
_atom_site_charge
  Si     Si        0.002013284472488    0.570198716991732    0.418417209228165  0.0000
  Si     Si        0.002013284476599    0.416261283013373    0.418417209217633  0.0000
  Si     Si        0.002013284204116    0.416261283091229    0.580630617379884  0.0000
  Si     Si        0.002013284204499    0.570198716919657    0.580630617392107  0.0000
  Si     Si        0.502013284480101    0.070198716926702    0.918417208776473  0.0000
  Si     Si        0.502013284485661    0.916261283071106    0.918417208781797  0.0000
  Si     Si        0.502013283979404    0.916261283085078    0.080630616892224  0.0000
  Si     Si        0.502013283972376    0.070198716928888    0.080630616887003  0.0000
  Si     Si        0.070854318388445    0.993229999975426    0.912114551729632  0.0000
  Si     Si        0.933172250913742    0.993229999982645    0.912114551276915  0.0000
  Si     Si        0.070854317499006    0.993229999981872    0.086933274867006  0.0000
  Si     Si        0.933172250010586    0.993229999983809    0.086933274420045  0.0000
  Si     Si        0.570854318603215    0.493230000010267    0.412114551876611  0.0000
  Si     Si        0.433172251143693    0.493230000006736    0.412114551211326  0.0000
  Si     Si        0.570854317407579    0.493230000009951    0.586933275011610  0.0000
  Si     Si        0.433172249937661    0.493230000007966    0.586933274362484  0.0000
  Si     Si        0.072547561953226    0.742682653252932    0.914965337440897  0.0000
  Si     Si        0.931479007363315    0.243777346763706    0.914965337417301  0.0000
  Si     Si        0.072547561031168    0.243777346712103    0.084082489052004  0.0000
  Si     Si        0.931479006402880    0.742682653131206    0.084082489068404  0.0000
  Si     Si        0.931479006410563    0.243777346846301    0.084082489063237  0.0000
  Si     Si        0.072547561022565    0.742682653270600    0.084082489074095  0.0000
  Si     Si        0.931479007366120    0.742682653220469    0.914965337417931  0.0000
  Si     Si        0.072547561957280    0.243777346726567    0.914965337424008  0.0000
  Si     Si        0.572547562102629    0.242682653268057    0.414965337246590  0.0000
  Si     Si        0.431479007500333    0.743777346760005    0.414965337051751  0.0000
  Si     Si        0.572547561090625    0.743777346750283    0.584082488890352  0.0000
  Si     Si        0.431479006495060    0.242682653263792    0.584082488710851  0.0000
  Si     Si        0.431479006509647    0.743777346740920    0.584082488706590  0.0000
  Si     Si        0.572547561074365    0.242682653261719    0.584082488894355  0.0000
  Si     Si        0.431479007478261    0.242682653241340    0.414965337056561  0.0000
  Si     Si        0.572547562124208    0.743777346745398    0.414965337242229  0.0000
  Si     Si        0.233571860996807    0.417822513697619    0.415925233254478  0.0000
  Si     Si        0.770454709220893    0.568637486535507    0.415925236281457  0.0000
  Si     Si        0.233571859489729    0.568637486426234    0.583122589994917  0.0000
  Si     Si        0.770454707574644    0.417822513698151    0.583122593234237  0.0000
  Si     Si        0.770454707583469    0.568637486308126    0.583122593231200  0.0000
  Si     Si        0.233571859494935    0.417822513596827    0.583122589993830  0.0000
  Si     Si        0.770454709212438    0.417822513469476    0.415925236280854  0.0000
  Si     Si        0.233571860991357    0.568637486332029    0.415925233258555  0.0000
  Si     Si        0.733571860608717    0.917822513625416    0.915925233446646  0.0000
  Si     Si        0.270454708800126    0.068637486383903    0.915925235726644  0.0000
  Si     Si        0.733571859666577    0.068637486362717    0.083122590216800  0.0000
  Si     Si        0.270454707820110    0.917822513629069    0.083122592496180  0.0000
  Si     Si        0.270454707812661    0.068637486340820    0.083122592492455  0.0000
  Si     Si        0.733571859659319    0.917822513636978    0.083122590210543  0.0000
  Si     Si        0.270454708806648    0.917822513590835    0.915925235732810  0.0000
  Si     Si        0.733571860617080    0.068637486363083    0.915925233450026  0.0000
  Si     Si        0.862681315596597    0.117174282908009    0.085896602118571  0.0000
  Si     Si        0.141345251906881    0.869285717061781    0.085896603090648  0.0000
  Si     Si        0.862681316521815    0.869285717047898    0.913151223085971  0.0000
  Si     Si        0.141345252821814    0.117174282881315    0.913151224038122  0.0000
  Si     Si        0.141345252830276    0.869285717080339    0.913151224052111  0.0000
  Si     Si        0.862681316535662    0.117174282923892    0.913151223086638  0.0000
  Si     Si        0.141345251902443    0.117174282907841    0.085896603076974  0.0000
  Si     Si        0.862681315583818    0.869285717065105    0.085896602115477  0.0000
  Si     Si        0.362681315549376    0.617174282933048    0.585896601935456  0.0000
  Si     Si        0.641345251821942    0.369285717085624    0.585896603333080  0.0000
  Si     Si        0.362681316813640    0.369285717080612    0.413151222907762  0.0000
  Si     Si        0.641345253104431    0.617174282881265    0.413151224268247  0.0000
  Si     Si        0.641345253094600    0.369285717133584    0.413151224265871  0.0000
  Si     Si        0.362681316817338    0.617174282932826    0.413151222909131  0.0000
  Si     Si        0.641345251832453    0.617174282928576    0.585896603331717  0.0000
  Si     Si        0.362681315548701    0.369285717079888    0.585896601936613  0.0000
  Si     Si        0.429744451422016    0.993229999998812    0.418536657995342  0.0000
  Si     Si        0.574282117635260    0.993230000008098    0.418536658169699  0.0000
  Si     Si        0.429744450904956    0.993230000005350    0.580511167506738  0.0000
  Si     Si        0.574282117100605    0.993230000016579    0.580511167676698  0.0000
  Si     Si        0.929744451526746    0.493229999982378    0.918536657934505  0.0000
  Si     Si        0.074282117718766    0.493229999980550    0.918536658823692  0.0000
  Si     Si        0.929744450849082    0.493229999985137    0.080511167382188  0.0000
  Si     Si        0.074282117052247    0.493229999987928    0.080511168334536  0.0000
  Si     Si        0.930393107104616    0.614592474947591    0.825290859234402  0.0000
  Si     Si        0.073633463079912    0.371867525255205    0.825290859616642  0.0000
  Si     Si        0.930393105377499    0.371867525417622    0.173756966841884  0.0000
  Si     Si        0.073633461379279    0.614592474934356    0.173756967120732  0.0000
  Si     Si        0.073633461379175    0.371867525037897    0.173756967125579  0.0000
  Si     Si        0.930393105371745    0.614592474553079    0.173756966827407  0.0000
  Si     Si        0.073633463074861    0.614592474718123    0.825290859632131  0.0000
  Si     Si        0.930393107103686    0.371867525026414    0.825290859224752  0.0000
  Si     Si        0.430393106808719    0.114592474898260    0.325290859142868  0.0000
  Si     Si        0.573633462850958    0.871867525139786    0.325290859234306  0.0000
  Si     Si        0.430393105723713    0.871867525229959    0.673756966616137  0.0000
  Si     Si        0.573633461697061    0.114592474816107    0.673756966693237  0.0000
  Si     Si        0.573633461707372    0.871867525201554    0.673756966674194  0.0000
  Si     Si        0.430393105712923    0.114592474773538    0.673756966615023  0.0000
  Si     Si        0.573633462832670    0.114592474880521    0.325290859220695  0.0000
  Si     Si        0.430393106826441    0.871867525106699    0.325290859142645  0.0000
  Si     Si        0.615555922440282    0.916624639833896    0.175138386490657  0.0000
  Si     Si        0.388470645187911    0.069835360007939    0.175138387353443  0.0000
  Si     Si        0.615555923344271    0.069835360035836    0.823909438485853  0.0000
  Si     Si        0.388470645922187    0.916624639786059    0.823909439344016  0.0000
  Si     Si        0.388470645917287    0.069835360193323    0.823909439334858  0.0000
  Si     Si        0.615555923341194    0.916624639970095    0.823909438473837  0.0000
  Si     Si        0.388470645193991    0.916624639982782    0.175138387352705  0.0000
  Si     Si        0.615555922438423    0.069835360200139    0.175138386480026  0.0000
  Si     Si        0.115555922492461    0.416624639692341    0.675138386721112  0.0000
  Si     Si        0.888470645056826    0.569835359907040    0.675138387765738  0.0000
  Si     Si        0.115555923651095    0.569835359841365    0.323909438537601  0.0000
  Si     Si        0.888470646337302    0.416624639345629    0.323909440510219  0.0000
  Si     Si        0.888470646340437    0.569835360654248    0.323909440508976  0.0000
  Si     Si        0.115555923655920    0.416624640168882    0.323909438530450  0.0000
  Si     Si        0.888470645057280    0.416624640083855    0.675138387755312  0.0000
  Si     Si        0.115555922494104    0.569835360318545    0.675138386730371  0.0000
  O      O         0.061977543922946    0.594281232872719    0.376753307261149  0.0000
  O      O         0.942049028740802    0.392178762154774    0.376753302978153  0.0000
  O      O         0.061977540383626    0.392178763351261    0.622294523401137  0.0000
  O      O         0.942049025075620    0.594281233357966    0.622294519634319  0.0000
  O      O         0.942049025071262    0.392178766646418    0.622294519609335  0.0000
  O      O         0.061977540388039    0.594281236663490    0.622294523406112  0.0000
  O      O         0.942049028739103    0.594281237847893    0.376753302982615  0.0000
  O      O         0.061977543926219    0.392178767132889    0.376753307250000  0.0000
  O      O         0.561977542883844    0.094281234301638    0.876753305571439  0.0000
  O      O         0.442049027584038    0.892178764227733    0.876753303706367  0.0000
  O      O         0.561977540820366    0.892178764225072    0.122294522084379  0.0000
  O      O         0.442049025526039    0.094281234237517    0.122294520070729  0.0000
  O      O         0.442049025527194    0.892178765767252    0.122294520056900  0.0000
  O      O         0.561977540824515    0.094281235796901    0.122294522054874  0.0000
  O      O         0.442049027591382    0.094281235765079    0.876753303670578  0.0000
  O      O         0.561977542873555    0.892178765695167    0.876753305544324  0.0000
  O      O         0.002013279613272    0.493230000002215    0.424042865293468  0.0000
  O      O         0.002013287822328    0.493230000005923    0.575004960704421  0.0000
  O      O         0.502013282869445    0.993229999999131    0.924042865338290  0.0000
  O      O         0.502013285646831    0.993230000006741    0.075004960290178  0.0000
  O      O         0.002013284483460    0.600820110787600    0.499523913321517  0.0000
  O      O         0.002013284494495    0.385639889220361    0.499523913310900  0.0000
  O      O         0.502013284221621    0.100820110855129    0.999523912835997  0.0000
  O      O         0.502013284254112    0.885639889151271    0.999523912845164  0.0000
  O      O         0.103902415400564    0.929547009259963    0.879523897349605  0.0000
  O      O         0.900124154298925    0.056912990749423    0.879523896656849  0.0000
  O      O         0.103902414149195    0.056912990723129    0.119523929505402  0.0000
  O      O         0.900124153024078    0.929547009254254    0.119523928831053  0.0000
  O      O         0.900124153031632    0.056912990716344    0.119523928838008  0.0000
  O      O         0.103902414167527    0.929547009256853    0.119523929518698  0.0000
  O      O         0.900124154278042    0.929547009227864    0.879523896657088  0.0000
  O      O         0.103902415389140    0.056912990697759    0.879523897349148  0.0000
  O      O         0.603902415658724    0.429547009302034    0.379523897535781  0.0000
  O      O         0.400124154554190    0.556912990738666    0.379523896488168  0.0000
  O      O         0.603902413991153    0.556912990769991    0.619523929654281  0.0000
  O      O         0.400124152901916    0.429547009289877    0.619523928728485  0.0000
  O      O         0.400124152879935    0.556912990710646    0.619523928735515  0.0000
  O      O         0.603902413966306    0.429547009234949    0.619523929651688  0.0000
  O      O         0.400124154568201    0.429547009265092    0.379523896490135  0.0000
  O      O         0.603902415670731    0.556912990711778    0.379523897535649  0.0000
  O      O         0.002013284792177    0.993229999967860    0.883486468813034  0.0000
  O      O         0.002013283621067    0.993229999974824    0.115561357358400  0.0000
  O      O         0.502013285049589    0.493230000015563    0.383486468817868  0.0000
  O      O         0.502013283498459    0.493230000023112    0.615561357392324  0.0000
  O      O         0.073667930619022    0.993229999969912    0.999523913319077  0.0000
  O      O         0.930358637796368    0.993229999989273    0.999523912843103  0.0000
  O      O         0.573667930658533    0.493230000009816    0.499523913453930  0.0000
  O      O         0.430358637857576    0.493230000010837    0.499523912765693  0.0000
  O      O         0.113549724928613    0.801690031076079    0.884518682812631  0.0000
  O      O         0.890476844747963    0.184769968987890    0.884518682314724  0.0000
  O      O         0.113549723661715    0.184769968875411    0.114529144087185  0.0000
  O      O         0.890476843417014    0.801690031072575    0.114529143477087  0.0000
  O      O         0.890476843436928    0.184769968898072    0.114529143474629  0.0000
  O      O         0.113549723651725    0.801690031105731    0.114529144121288  0.0000
  O      O         0.890476844735273    0.801690030983936    0.884518682313882  0.0000
  O      O         0.113549724911398    0.184769968883292    0.884518682804979  0.0000
  O      O         0.613549725195898    0.301690031156359    0.384518682889686  0.0000
  O      O         0.390476845013710    0.684769968890955    0.384518681908179  0.0000
  O      O         0.613549723584771    0.684769968948073    0.614529144104758  0.0000
  O      O         0.390476843415294    0.301690031063024    0.614529143254845  0.0000
  O      O         0.390476843431595    0.684769968942214    0.614529143259194  0.0000
  O      O         0.613549723575005    0.301690031063155    0.614529144095740  0.0000
  O      O         0.390476844990923    0.301690031110614    0.384518681917507  0.0000
  O      O         0.613549725216753    0.684769968859393    0.384518682881724  0.0000
  O      O         0.089089736172157    0.681512141231081    0.865163293005481  0.0000
  O      O         0.914936833671696    0.304947858865882    0.865163293058443  0.0000
  O      O         0.089089734812399    0.304947858839788    0.133884533348269  0.0000
  O      O         0.914936832178595    0.681512141241043    0.133884533806923  0.0000
  O      O         0.914936832193448    0.304947858722963    0.133884533828670  0.0000
  O      O         0.089089734816542    0.681512141128166    0.133884533338788  0.0000
  O      O         0.914936833686541    0.681512141112569    0.865163293062410  0.0000
  O      O         0.089089736188596    0.304947858732026    0.865163292966491  0.0000
  O      O         0.589089736258007    0.181512141251335    0.365163292722144  0.0000
  O      O         0.414936833461489    0.804947858820277    0.365163292787388  0.0000
  O      O         0.589089734980039    0.804947858862044    0.633884533118724  0.0000
  O      O         0.414936832436010    0.181512141199321    0.633884533174917  0.0000
  O      O         0.414936832447311    0.804947858813272    0.633884533157647  0.0000
  O      O         0.589089734960390    0.181512141158201    0.633884533137310  0.0000
  O      O         0.414936833434754    0.181512141183609    0.365163292787609  0.0000
  O      O         0.589089736278487    0.804947858760671    0.365163292715735  0.0000
  O      O         0.002013284679692    0.762294217197651    0.906777323860526  0.0000
  O      O         0.002013284678792    0.224165782801247    0.906777323858229  0.0000
  O      O         0.002013283683513    0.224165782895454    0.092270502744370  0.0000
  O      O         0.002013283674045    0.762294217080691    0.092270502785106  0.0000
  O      O         0.502013284819362    0.262294217094797    0.406777323392666  0.0000
  O      O         0.502013284842568    0.724165782914945    0.406777323386416  0.0000
  O      O         0.502013283767341    0.724165782807544    0.592270502440546  0.0000
  O      O         0.502013283751233    0.262294217205399    0.592270502443375  0.0000
  O      O         0.087124273067106    0.725825347089005    0.999523913354974  0.0000
  O      O         0.916902295360414    0.260634653113363    0.999523913163344  0.0000
  O      O         0.087124273078998    0.260634652907207    0.999523913335064  0.0000
  O      O         0.916902295371564    0.725825346870032    0.999523913162990  0.0000
  O      O         0.587124273109118    0.225825347062016    0.499523913150037  0.0000
  O      O         0.416902295466844    0.760634652931516    0.499523912791018  0.0000
  O      O         0.587124273130156    0.760634652946372    0.499523913147358  0.0000
  O      O         0.416902295452161    0.225825347064355    0.499523912796275  0.0000
  O      O         0.214152367948811    0.402746476755763    0.499523911399932  0.0000
  O      O         0.789874200360734    0.583713523097636    0.499523915011866  0.0000
  O      O         0.214152367930495    0.583713523262251    0.499523911403225  0.0000
  O      O         0.789874200340125    0.402746476898720    0.499523915013128  0.0000
  O      O         0.714152367917254    0.902746476753014    0.999523911729038  0.0000
  O      O         0.289874200510779    0.083713523275392    0.999523914230465  0.0000
  O      O         0.714152367931093    0.083713523244692    0.999523911732721  0.0000
  O      O         0.289874200528071    0.902746476704138    0.999523914234347  0.0000
  O      O         0.251522338111992    0.493230000015825    0.408869973598773  0.0000
  O      O         0.752504233340298    0.493230000003452    0.408869974816589  0.0000
  O      O         0.251522336025864    0.493230000012383    0.590177850587113  0.0000
  O      O         0.752504230456607    0.493230000004606    0.590177853132486  0.0000
  O      O         0.751522337465028    0.993229999993170    0.908869973391564  0.0000
  O      O         0.252504232189051    0.993229999986172    0.908869975337647  0.0000
  O      O         0.751522336409625    0.993229999998441    0.090177850568070  0.0000
  O      O         0.252504230894820    0.993229999984034    0.090177852425222  0.0000
  O      O         0.291667897670575    0.375084428167751    0.391740560938520  0.0000
  O      O         0.712358672550390    0.611375571506243    0.391740563129287  0.0000
  O      O         0.291667896063428    0.611375571715186    0.607307262899533  0.0000
  O      O         0.712358670881108    0.375084428170632    0.607307265594379  0.0000
  O      O         0.712358670895975    0.611375571852471    0.607307265574597  0.0000
  O      O         0.291667896068068    0.375084428315650    0.607307262917546  0.0000
  O      O         0.712358672538953    0.375084428506872    0.391740563112513  0.0000
  O      O         0.291667897668666    0.611375571864248    0.391740560956542  0.0000
  O      O         0.791667897382873    0.875084428198188    0.891740561122554  0.0000
  O      O         0.212358672236907    0.111375571665167    0.891740562817477  0.0000
  O      O         0.791667896144357    0.111375571687726    0.107307263265746  0.0000
  O      O         0.212358671092709    0.875084428215432    0.107307264963126  0.0000
  O      O         0.212358671082794    0.111375571744845    0.107307264968309  0.0000
  O      O         0.791667896130932    0.875084428300203    0.107307263255330  0.0000
  O      O         0.212358672245618    0.875084428299595    0.891740562840477  0.0000
  O      O         0.791667897398291    0.111375571775192    0.891740561116716  0.0000
  O      O         0.178918988370236    0.399171810411089    0.362339648141487  0.0000
  O      O         0.825107583160563    0.587288191546458    0.362339653611479  0.0000
  O      O         0.178918985753948    0.587288190463052    0.636708173360888  0.0000
  O      O         0.825107580455301    0.399171810280111    0.636708177875247  0.0000
  O      O         0.825107580458268    0.587288189716765    0.636708177884459  0.0000
  O      O         0.178918985749727    0.399171809554661    0.636708173342148  0.0000
  O      O         0.825107583158147    0.399171808459893    0.362339653617632  0.0000
  O      O         0.178918988365318    0.587288189615648    0.362339648143949  0.0000
  O      O         0.678918987681510    0.899171810004751    0.862339648935337  0.0000
  O      O         0.325107582410508    0.087288190284230    0.862339652098006  0.0000
  O      O         0.678918986003074    0.087288190129893    0.136708173811238  0.0000
  O      O         0.325107580757573    0.899171810138110    0.136708177050824  0.0000
  O      O         0.325107580753093    0.087288189839201    0.136708177039352  0.0000
  O      O         0.678918985991027    0.899171809886226    0.136708173801556  0.0000
  O      O         0.325107582408825    0.899171809695030    0.862339652090646  0.0000
  O      O         0.678918987688689    0.087288189992949    0.862339648944296  0.0000
  O      O         0.870539229448674    0.114478378865905    0.999523912637985  0.0000
  O      O         0.133487338990499    0.871981621061462    0.999523913552042  0.0000
  O      O         0.870539229446919    0.871981621099026    0.999523912635561  0.0000
  O      O         0.133487338996605    0.114478378893157    0.999523913537871  0.0000
  O      O         0.370539229696508    0.614478378932109    0.499523912460746  0.0000
  O      O         0.633487339228997    0.371981621159243    0.499523913752715  0.0000
  O      O         0.370539229680441    0.371981621085980    0.499523912460768  0.0000
  O      O         0.633487339218800    0.614478378864729    0.499523913753102  0.0000
  O      O         0.406824982497421    0.929352176058076    0.377161830669412  0.0000
  O      O         0.597201586779631    0.057107824000304    0.377161830973349  0.0000
  O      O         0.406824981772442    0.057107824003755    0.621885994693085  0.0000
  O      O         0.597201585990403    0.929352176064006    0.621885994989152  0.0000
  O      O         0.597201585993050    0.057107823960068    0.621885995006995  0.0000
  O      O         0.406824981780380    0.929352176015368    0.621885994718686  0.0000
  O      O         0.597201586795878    0.929352176000912    0.377161831016343  0.0000
  O      O         0.406824982500309    0.057107823943158    0.377161830676485  0.0000
  O      O         0.906824982672162    0.429352176073039    0.877161830532315  0.0000
  O      O         0.097201586878759    0.557107824023116    0.877161831762743  0.0000
  O      O         0.906824981644577    0.557107824010786    0.121885994446976  0.0000
  O      O         0.097201585873621    0.429352176066506    0.121885995816598  0.0000
  O      O         0.097201585894646    0.557107823889475    0.121885995844000  0.0000
  O      O         0.906824981664661    0.429352175948597    0.121885994439289  0.0000
  O      O         0.097201586886029    0.429352175942876    0.877161831757188  0.0000
  O      O         0.906824982678536    0.557107823901258    0.877161830546064  0.0000
  O      O         0.502013284509660    0.993229999994359    0.423857439347003  0.0000
  O      O         0.502013284018731    0.993230000021238    0.575190386191178  0.0000
  O      O         0.002013284586713    0.493229999969370    0.923857439824586  0.0000
  O      O         0.002013283994223    0.493230000011299    0.075190386578161  0.0000
  O      O         0.401042624754505    0.993229999993722    0.499523912699540  0.0000
  O      O         0.602983943773633    0.993230000026474    0.499523912972490  0.0000
  O      O         0.901042624752844    0.493229999977519    0.999523912578852  0.0000
  O      O         0.102983943813553    0.493229999984584    0.999523913691854  0.0000
  O      O         0.893036772872753    0.610124399068788    0.750008918190734  0.0000
  O      O         0.110989798009950    0.376335602410982    0.750008918873210  0.0000
  O      O         0.893036770451856    0.376335603143039    0.249038907519461  0.0000
  O      O         0.110989795487668    0.610124399210098    0.249038908280740  0.0000
  O      O         0.110989795500037    0.376335600791769    0.249038908275567  0.0000
  O      O         0.893036770458033    0.610124396847889    0.249038907513993  0.0000
  O      O         0.110989798011426    0.610124397587832    0.750008918890928  0.0000
  O      O         0.893036772883394    0.376335600910509    0.750008918172159  0.0000
  O      O         0.393036772452073    0.110124398683300    0.250008918191727  0.0000
  O      O         0.610989797360186    0.876335601976226    0.250008918162266  0.0000
  O      O         0.393036771078764    0.876335602043034    0.749038907588686  0.0000
  O      O         0.610989796162704    0.110124398573299    0.749038907544698  0.0000
  O      O         0.610989796172849    0.876335601444288    0.749038907524682  0.0000
  O      O         0.393036771053519    0.110124397929387    0.749038907572946  0.0000
  O      O         0.610989797338414    0.110124398071234    0.250008918141881  0.0000
  O      O         0.393036772473760    0.876335601306407    0.250008918187739  0.0000
  O      O         0.002013285147640    0.606999850740527    0.808474464523311  0.0000
  O      O         0.002013285149080    0.379460149221992    0.808474464526675  0.0000
  O      O         0.002013283347915    0.379460149293516    0.190573361821007  0.0000
  O      O         0.002013283344728    0.606999850678744    0.190573361790301  0.0000
  O      O         0.502013284855841    0.106999850912317    0.308474464426151  0.0000
  O      O         0.502013284874168    0.879460149110231    0.308474464432530  0.0000
  O      O         0.502013283678074    0.879460149320289    0.690573361516501  0.0000
  O      O         0.502013283666821    0.106999850689717    0.690573361532843  0.0000
  O      O         0.609196568700782    0.993230000017697    0.191537829817952  0.0000
  O      O         0.394829998953404    0.993229999996006    0.191537831573153  0.0000
  O      O         0.609196569661030    0.993230000004219    0.807509994399734  0.0000
  O      O         0.394829999508404    0.993229999988979    0.807509996109718  0.0000
  O      O         0.109196568870401    0.493230000004481    0.691537829349079  0.0000
  O      O         0.894829998737882    0.493229999994475    0.691537832551212  0.0000
  O      O         0.109196570025478    0.493230000005415    0.307509993337803  0.0000
  O      O         0.894829999999956    0.493230000000040    0.307509999999979  0.0000
