data_ReferenceDataBase/8312978_111
_audit_creation_method             Generated by GULP
_audit_author_name                 Salvador R. G. Balestra
_symmetry_space_group_name_H-M     'P 1             '
_symmetry_Int_Tables_number        1

loop_
_symmetry_equiv_pos_site_id
_symmetry_equiv_pos_as_xyz
   1     +x,+y,+z                
_cell_length_a                       20.1901
_cell_length_b                       20.1901
_cell_length_c                       19.1087
_cell_angle_alpha                   90.0000
_cell_angle_beta                    90.0000
_cell_angle_gamma                   90.0000

loop_
_atom_site_label
_atom_site_type_symbol
_atom_site_fract_x
_atom_site_fract_y
_atom_site_fract_z
_atom_site_charge
  Si     Si        0.831883500000004    0.277653299999997    0.350752199999988  0.0000
  Si     Si        0.823811900000010    0.924388199999953    0.919209700000010  0.0000
  Si     Si        0.371716099999958    0.257888800000046    0.425133100000039  0.0000
  Si     Si        0.221262600000045    0.665737199999967    0.216018299999973  0.0000
  Si     Si        0.285789399999999    0.171324000000027    0.078850800000055  0.0000
  Si     Si        0.816788699999961    0.921651500000053    0.420387699999992  0.0000
  Si     Si        0.315720199999987    0.422757799999999    0.713658600000031  0.0000
  O      O         0.810785200000055    0.337750000000028    0.402172400000040  0.0000
  O      O         0.836178900000050    0.308165400000007    0.272282499999960  0.0000
  O      O         0.900867599999970    0.245158500000002    0.375414800000044  0.0000
  O      O         0.752625100000046    0.891568499999948    0.903484800000001  0.0000
  O      O         0.424830799999995    0.284056200000009    0.368884200000025  0.0000
  O      O         0.189138699999944    0.657658699999956    0.138723000000027  0.0000
  O      O         0.258169700000053    0.598200300000030    0.237740000000031  0.0000
  O      O         0.776509799999985    0.221617000000037    0.354397199999994  0.0000
  O      O         0.274728500000037    0.723398299999985    0.215136700000016  0.0000
  O      O         0.883175599999959    0.880255899999952    0.886175200000025  0.0000
  O      O         0.312664599999948    0.309744900000055    0.427806300000043  0.0000
  O      O         0.231719200000043    0.228799500000036    0.075344699999960  0.0000
  O      O         0.882098199999973    0.879178499999966    0.401466799999980  0.0000
  O      O         0.381744499999968    0.378824900000041    0.720783099999949  0.0000
  O      O         0.825807800000007    0.997603600000048    0.885425299999952  0.0000
  O      O         0.831920100000048    0.997603600000048    0.401200799999970  0.0000
  O      O         0.834147899999948    0.928237899999999    0.001798300000019  0.0000
  O      O         0.319789099999980    0.165093899999988    0.001798300000019  0.0000
  O      O         0.405243000000041    0.250684699999965    0.501798300000019  0.0000
  O      O         0.798807399999987    0.913101399999960    0.501798300000019  0.0000
  O      O         0.334017900000049    0.497603600000048    0.734165800000028  0.0000
  Si     Si        0.720473599999991    0.828963799999997    0.350752199999988  0.0000
  Si     Si        0.073738700000035    0.820892299999969    0.919209700000010  0.0000
  Si     Si        0.740238100000056    0.368796399999951    0.425133100000039  0.0000
  Si     Si        0.332389700000022    0.218343000000004    0.216018299999973  0.0000
  Si     Si        0.826802799999996    0.282869699999992    0.078850800000055  0.0000
  Si     Si        0.076475299999970    0.813868999999954    0.420387699999992  0.0000
  Si     Si        0.575369099999989    0.312800599999946    0.713658600000031  0.0000
  O      O         0.660376799999995    0.807865600000014    0.402172400000040  0.0000
  O      O         0.689961400000016    0.833259200000043    0.272282499999960  0.0000
  O      O         0.752968399999986    0.897948000000042    0.375414800000044  0.0000
  O      O         0.106558400000040    0.749705500000005    0.903484800000001  0.0000
  O      O         0.714070699999979    0.421911099999988    0.368884200000025  0.0000
  O      O         0.340468099999953    0.186219100000017    0.138723000000027  0.0000
  O      O         0.399926499999992    0.255250000000046    0.237740000000031  0.0000
  O      O         0.776509799999985    0.773590099999979    0.354397299999960  0.0000
  O      O         0.274728500000037    0.271808800000031    0.215136700000016  0.0000
  O      O         0.117871000000036    0.880255899999952    0.886175200000025  0.0000
  O      O         0.688381899999968    0.309745000000021    0.427806300000043  0.0000
  O      O         0.769327299999986    0.228799600000002    0.075344699999960  0.0000
  O      O         0.118948300000056    0.879178499999966    0.401466799999980  0.0000
  O      O         0.619301999999948    0.378824900000041    0.720783099999949  0.0000
  O      O         0.000523300000054    0.822888100000000    0.885425299999952  0.0000
  O      O         0.000523300000054    0.829000500000006    0.401200799999970  0.0000
  O      O         0.069888999999989    0.831228300000021    0.001798300000019  0.0000
  O      O         0.833033000000000    0.316869500000053    0.001798300000019  0.0000
  O      O         0.747442099999944    0.402323300000035    0.501798300000019  0.0000
  O      O         0.085025500000029    0.795887699999980    0.501798300000019  0.0000
  O      O         0.500523300000054    0.331098200000042    0.734165800000028  0.0000
  Si     Si        0.169163000000026    0.717553899999984    0.350752199999988  0.0000
  Si     Si        0.177234600000020    0.070819000000029    0.919209700000010  0.0000
  Si     Si        0.629330500000037    0.737318400000049    0.425133100000039  0.0000
  Si     Si        0.779783899999984    0.329470000000015    0.216018299999973  0.0000
  Si     Si        0.715257199999996    0.823883199999955    0.078850800000055  0.0000
  Si     Si        0.184257900000034    0.073555599999963    0.420387699999992  0.0000
  Si     Si        0.685326300000042    0.572449399999982    0.713658600000031  0.0000
  O      O         0.190261299999975    0.657457199999953    0.402172400000040  0.0000
  O      O         0.164867599999980    0.687041799999975    0.272282499999960  0.0000
  O      O         0.100178899999946    0.750048699999979    0.375414800000044  0.0000
  O      O         0.248421399999984    0.103638700000033    0.903484800000001  0.0000
  O      O         0.576215700000034    0.711151100000052    0.368884200000025  0.0000
  O      O         0.811907799999972    0.337548500000025    0.138723000000027  0.0000
  O      O         0.742876900000056    0.397006899999951    0.237740000000031  0.0000
  O      O         0.224536700000044    0.773590099999979    0.354397299999960  0.0000
  O      O         0.726317999999992    0.271808800000031    0.215136700000016  0.0000
  O      O         0.117871000000036    0.114951300000030    0.886175200000025  0.0000
  O      O         0.688381899999968    0.685462199999961    0.427806300000043  0.0000
  O      O         0.769327299999986    0.766407699999945    0.075344699999960  0.0000
  O      O         0.118948300000056    0.116028700000015    0.401466799999980  0.0000
  O      O         0.619301999999948    0.616382300000055    0.720783099999949  0.0000
  O      O         0.175238799999988    0.997603600000048    0.885425299999952  0.0000
  O      O         0.169126399999982    0.997603600000048    0.401200799999970  0.0000
  O      O         0.166898599999968    0.066969299999982    0.001798300000019  0.0000
  O      O         0.681257400000050    0.830113299999994    0.001798300000019  0.0000
  O      O         0.595803499999988    0.744522500000016    0.501798300000019  0.0000
  O      O         0.202239200000008    0.082105800000022    0.501798300000019  0.0000
  O      O         0.667028699999946    0.497603600000048    0.734165800000028  0.0000
  Si     Si        0.280573000000004    0.166243399999985    0.350752199999988  0.0000
  Si     Si        0.927307799999994    0.174314900000013    0.919209700000010  0.0000
  Si     Si        0.260808399999974    0.626410800000031    0.425133100000039  0.0000
  Si     Si        0.668656800000008    0.776864199999977    0.216018299999973  0.0000
  Si     Si        0.174243700000034    0.712337499999990    0.078850800000055  0.0000
  Si     Si        0.924571199999946    0.181338200000027    0.420387699999992  0.0000
  Si     Si        0.425677500000006    0.682406600000036    0.713658600000031  0.0000
  O      O         0.340669700000035    0.187341599999968    0.402172400000040  0.0000
  O      O         0.311085100000014    0.161948000000052    0.272282499999960  0.0000
  O      O         0.248078200000009    0.097259300000019    0.375414800000044  0.0000
  O      O         0.894488199999955    0.245501699999977    0.903484800000001  0.0000
  O      O         0.286975800000050    0.573296099999993    0.368884200000025  0.0000
  O      O         0.660578399999963    0.808988200000044    0.138723000000027  0.0000
  O      O         0.601120000000037    0.739957200000049    0.237740000000031  0.0000
  O      O         0.224536700000044    0.221617000000037    0.354397299999960  0.0000
  O      O         0.726317999999992    0.723398299999985    0.215136700000016  0.0000
  O      O         0.883175599999959    0.114951300000030    0.886175200000025  0.0000
  O      O         0.312664599999948    0.685462199999961    0.427806300000043  0.0000
  O      O         0.231719200000043    0.766407699999945    0.075344699999960  0.0000
  O      O         0.882098199999973    0.116028700000015    0.401466799999980  0.0000
  O      O         0.381744499999968    0.616382300000055    0.720783099999949  0.0000
  O      O         0.000523300000054    0.172319099999982    0.885425299999952  0.0000
  O      O         0.000523300000054    0.166206699999975    0.401200799999970  0.0000
  O      O         0.931157500000040    0.163978899999961    0.001798300000019  0.0000
  O      O         0.168013500000029    0.678337800000008    0.001798300000019  0.0000
  O      O         0.253604399999972    0.592883899999947    0.501798300000019  0.0000
  O      O         0.916021000000001    0.199319500000001    0.501798300000019  0.0000
  O      O         0.500523300000054    0.664109000000053    0.734165800000028  0.0000
  Si     Si        0.831883500000004    0.717553899999984    0.652844400000049  0.0000
  Si     Si        0.823811900000010    0.070819000000029    0.084386999999992  0.0000
  Si     Si        0.371716099999958    0.737318400000049    0.578463599999964  0.0000
  Si     Si        0.221262600000045    0.329470000000015    0.787578299999950  0.0000
  Si     Si        0.285789399999999    0.823883199999955    0.924745799999982  0.0000
  Si     Si        0.816788699999961    0.073555599999963    0.583209000000011  0.0000
  Si     Si        0.315720199999987    0.572449399999982    0.289938099999972  0.0000
  O      O         0.810785200000055    0.657457199999953    0.601424299999962  0.0000
  O      O         0.836178900000050    0.687041799999975    0.731314200000043  0.0000
  O      O         0.900867599999970    0.750048699999979    0.628181899999959  0.0000
  O      O         0.752625100000046    0.103638700000033    0.100111800000036  0.0000
  O      O         0.424830799999995    0.711151100000052    0.634712400000012  0.0000
  O      O         0.189138699999944    0.337548500000025    0.864873699999976  0.0000
  O      O         0.258169700000053    0.397006899999951    0.765856600000006  0.0000
  O      O         0.776509799999985    0.773590099999979    0.649199400000043  0.0000
  O      O         0.274728500000037    0.271808800000031    0.788459900000021  0.0000
  O      O         0.883175599999959    0.114951300000030    0.117421400000012  0.0000
  O      O         0.312664599999948    0.685462199999961    0.575790299999994  0.0000
  O      O         0.231719200000043    0.766407699999945    0.928251899999964  0.0000
  O      O         0.882098199999973    0.116028700000015    0.602129900000023  0.0000
  O      O         0.381744499999968    0.616382300000055    0.282813600000054  0.0000
  O      O         0.825807800000007    0.997603600000048    0.118171299999972  0.0000
  O      O         0.831920100000048    0.997603600000048    0.602395799999954  0.0000
  O      O         0.834147899999948    0.066969299999982    0.001798300000019  0.0000
  O      O         0.319789099999980    0.830113299999994    0.001798300000019  0.0000
  O      O         0.405243000000041    0.744522500000016    0.501798300000019  0.0000
  O      O         0.798807399999987    0.082105800000022    0.501798300000019  0.0000
  O      O         0.334017900000049    0.497603600000048    0.269430800000009  0.0000
  Si     Si        0.280573000000004    0.828963799999997    0.652844400000049  0.0000
  Si     Si        0.927307799999994    0.820892299999969    0.084386999999992  0.0000
  Si     Si        0.260808399999974    0.368796399999951    0.578463599999964  0.0000
  Si     Si        0.668656800000008    0.218343000000004    0.787578299999950  0.0000
  Si     Si        0.174243700000034    0.282869699999992    0.924745799999982  0.0000
  Si     Si        0.924571199999946    0.813868999999954    0.583209000000011  0.0000
  Si     Si        0.425677500000006    0.312800599999946    0.289938099999972  0.0000
  O      O         0.340669700000035    0.807865600000014    0.601424299999962  0.0000
  O      O         0.311085100000014    0.833259200000043    0.731314200000043  0.0000
  O      O         0.248078200000009    0.897948000000042    0.628181899999959  0.0000
  O      O         0.894488199999955    0.749705500000005    0.100111800000036  0.0000
  O      O         0.286975800000050    0.421911099999988    0.634712400000012  0.0000
  O      O         0.660578399999963    0.186219100000017    0.864873699999976  0.0000
  O      O         0.601120000000037    0.255250000000046    0.765856600000006  0.0000
  O      O         0.224536700000044    0.773590099999979    0.649199400000043  0.0000
  O      O         0.726317999999992    0.271808899999996    0.788459900000021  0.0000
  O      O         0.883175599999959    0.880255899999952    0.117421400000012  0.0000
  O      O         0.312664599999948    0.309744900000055    0.575790299999994  0.0000
  O      O         0.231719200000043    0.228799500000036    0.928251899999964  0.0000
  O      O         0.882098199999973    0.879178499999966    0.602129900000023  0.0000
  O      O         0.381744499999968    0.378824900000041    0.282813600000054  0.0000
  O      O         0.000523300000054    0.822888100000000    0.118171299999972  0.0000
  O      O         0.000523300000054    0.829000500000006    0.602395799999954  0.0000
  O      O         0.931157500000040    0.831228300000021    0.001798300000019  0.0000
  O      O         0.168013500000029    0.316869500000053    0.001798300000019  0.0000
  O      O         0.253604399999972    0.402323300000035    0.501798300000019  0.0000
  O      O         0.916021000000001    0.795887699999980    0.501798300000019  0.0000
  O      O         0.500523300000054    0.331098200000042    0.269430800000009  0.0000
  Si     Si        0.169163000000026    0.277653299999997    0.652844400000049  0.0000
  Si     Si        0.177234600000020    0.924388199999953    0.084386999999992  0.0000
  Si     Si        0.629330500000037    0.257888800000046    0.578463599999964  0.0000
  Si     Si        0.779783899999984    0.665737199999967    0.787578299999950  0.0000
  Si     Si        0.715257199999996    0.171324000000027    0.924745799999982  0.0000
  Si     Si        0.184257900000034    0.921651500000053    0.583209000000011  0.0000
  Si     Si        0.685326300000042    0.422757799999999    0.289938099999972  0.0000
  O      O         0.190261299999975    0.337750000000028    0.601424299999962  0.0000
  O      O         0.164867599999980    0.308165400000007    0.731314200000043  0.0000
  O      O         0.100178899999946    0.245158500000002    0.628181899999959  0.0000
  O      O         0.248421399999984    0.891568499999948    0.100111800000036  0.0000
  O      O         0.576215800000000    0.284056200000009    0.634712400000012  0.0000
  O      O         0.811907799999972    0.657658800000036    0.864873699999976  0.0000
  O      O         0.742876900000056    0.598200300000030    0.765856600000006  0.0000
  O      O         0.224536700000044    0.221617000000037    0.649199400000043  0.0000
  O      O         0.726317999999992    0.723398299999985    0.788459900000021  0.0000
  O      O         0.117871000000036    0.880255899999952    0.117421400000012  0.0000
  O      O         0.688381899999968    0.309744900000055    0.575790299999994  0.0000
  O      O         0.769327299999986    0.228799500000036    0.928251899999964  0.0000
  O      O         0.118948300000056    0.879178499999966    0.602129900000023  0.0000
  O      O         0.619301999999948    0.378824900000041    0.282813600000054  0.0000
  O      O         0.175238799999988    0.997603600000048    0.118171299999972  0.0000
  O      O         0.169126399999982    0.997603600000048    0.602395799999954  0.0000
  O      O         0.166898599999968    0.928237899999999    0.001798300000019  0.0000
  O      O         0.681257400000050    0.165093899999988    0.001798300000019  0.0000
  O      O         0.595803599999954    0.250684699999965    0.501798300000019  0.0000
  O      O         0.202239200000008    0.913101399999960    0.501798300000019  0.0000
  O      O         0.667028699999946    0.497603600000048    0.269430800000009  0.0000
  Si     Si        0.720473599999991    0.166243399999985    0.652844400000049  0.0000
  Si     Si        0.073738700000035    0.174314900000013    0.084386999999992  0.0000
  Si     Si        0.740238100000056    0.626410800000031    0.578463599999964  0.0000
  Si     Si        0.332389700000022    0.776864199999977    0.787578299999950  0.0000
  Si     Si        0.826802799999996    0.712337499999990    0.924745799999982  0.0000
  Si     Si        0.076475299999970    0.181338200000027    0.583209000000011  0.0000
  Si     Si        0.575369099999989    0.682406700000001    0.289938099999972  0.0000
  O      O         0.660376799999995    0.187341599999968    0.601424299999962  0.0000
  O      O         0.689961400000016    0.161948000000052    0.731314200000043  0.0000
  O      O         0.752968399999986    0.097259300000019    0.628181899999959  0.0000
  O      O         0.106558400000040    0.245501699999977    0.100111800000036  0.0000
  O      O         0.714070699999979    0.573296099999993    0.634712400000012  0.0000
  O      O         0.340468099999953    0.808988200000044    0.864873699999976  0.0000
  O      O         0.399926499999992    0.739957200000049    0.765856600000006  0.0000
  O      O         0.776509799999985    0.221617000000037    0.649199400000043  0.0000
  O      O         0.274728500000037    0.723398299999985    0.788459900000021  0.0000
  O      O         0.117871000000036    0.114951300000030    0.117421400000012  0.0000
  O      O         0.688381899999968    0.685462199999961    0.575790299999994  0.0000
  O      O         0.769327299999986    0.766407699999945    0.928251899999964  0.0000
  O      O         0.118948300000056    0.116028700000015    0.602129900000023  0.0000
  O      O         0.619301999999948    0.616382300000055    0.282813600000054  0.0000
  O      O         0.000523300000054    0.172319099999982    0.118171299999972  0.0000
  O      O         0.000523300000054    0.166206699999975    0.602395799999954  0.0000
  O      O         0.069888999999989    0.163978899999961    0.001798300000019  0.0000
  O      O         0.833033000000000    0.678337800000008    0.001798300000019  0.0000
  O      O         0.747442099999944    0.592883899999947    0.501798300000019  0.0000
  O      O         0.085025500000029    0.199319500000001    0.501798300000019  0.0000
  O      O         0.500523300000054    0.664109000000053    0.269430800000009  0.0000
  Si     Si        0.169163000000026    0.717553899999984    0.652844400000049  0.0000
  Si     Si        0.177234600000020    0.070819000000029    0.084386999999992  0.0000
  Si     Si        0.629330500000037    0.737318400000049    0.578463599999964  0.0000
  Si     Si        0.779783899999984    0.329470000000015    0.787578299999950  0.0000
  Si     Si        0.715257199999996    0.823883199999955    0.924745799999982  0.0000
  Si     Si        0.184257900000034    0.073555599999963    0.583209000000011  0.0000
  Si     Si        0.685326300000042    0.572449399999982    0.289938099999972  0.0000
  O      O         0.190261299999975    0.657457199999953    0.601424299999962  0.0000
  O      O         0.164867599999980    0.687041799999975    0.731314200000043  0.0000
  O      O         0.100178899999946    0.750048699999979    0.628181899999959  0.0000
  O      O         0.248421399999984    0.103638700000033    0.100111800000036  0.0000
  O      O         0.576215700000034    0.711151100000052    0.634712400000012  0.0000
  O      O         0.811907799999972    0.337548500000025    0.864873699999976  0.0000
  O      O         0.742876900000056    0.397006899999951    0.765856600000006  0.0000
  Si     Si        0.280573000000004    0.166243399999985    0.652844400000049  0.0000
  Si     Si        0.927307799999994    0.174314900000013    0.084386999999992  0.0000
  Si     Si        0.260808399999974    0.626410800000031    0.578463599999964  0.0000
  Si     Si        0.668656800000008    0.776864199999977    0.787578299999950  0.0000
  Si     Si        0.174243700000034    0.712337499999990    0.924745799999982  0.0000
  Si     Si        0.924571199999946    0.181338200000027    0.583209000000011  0.0000
  Si     Si        0.425677500000006    0.682406600000036    0.289938099999972  0.0000
  O      O         0.340669700000035    0.187341599999968    0.601424299999962  0.0000
  O      O         0.311085100000014    0.161948000000052    0.731314200000043  0.0000
  O      O         0.248078200000009    0.097259300000019    0.628181899999959  0.0000
  O      O         0.894488199999955    0.245501699999977    0.100111800000036  0.0000
  O      O         0.286975800000050    0.573296099999993    0.634712400000012  0.0000
  O      O         0.660578399999963    0.808988200000044    0.864873699999976  0.0000
  O      O         0.601120000000037    0.739957200000049    0.765856600000006  0.0000
  Si     Si        0.831883500000004    0.277653299999997    0.652844400000049  0.0000
  Si     Si        0.823811900000010    0.924388199999953    0.084386999999992  0.0000
  Si     Si        0.371716099999958    0.257888800000046    0.578463599999964  0.0000
  Si     Si        0.221262600000045    0.665737199999967    0.787578299999950  0.0000
  Si     Si        0.285789399999999    0.171324000000027    0.924745799999982  0.0000
  Si     Si        0.816788699999961    0.921651500000053    0.583209000000011  0.0000
  Si     Si        0.315720199999987    0.422757799999999    0.289938099999972  0.0000
  O      O         0.810785200000055    0.337750000000028    0.601424299999962  0.0000
  O      O         0.836178900000050    0.308165400000007    0.731314200000043  0.0000
  O      O         0.900867599999970    0.245158500000002    0.628181899999959  0.0000
  O      O         0.752625100000046    0.891568499999948    0.100111800000036  0.0000
  O      O         0.424830799999995    0.284056200000009    0.634712400000012  0.0000
  O      O         0.189138699999944    0.657658699999956    0.864873699999976  0.0000
  O      O         0.258169700000053    0.598200300000030    0.765856600000006  0.0000
  Si     Si        0.720473599999991    0.828963799999997    0.652844400000049  0.0000
  Si     Si        0.073738700000035    0.820892299999969    0.084386999999992  0.0000
  Si     Si        0.740238100000056    0.368796399999951    0.578463599999964  0.0000
  Si     Si        0.332389700000022    0.218343000000004    0.787578299999950  0.0000
  Si     Si        0.826802799999996    0.282869699999992    0.924745799999982  0.0000
  Si     Si        0.076475299999970    0.813868999999954    0.583209000000011  0.0000
  Si     Si        0.575369099999989    0.312800599999946    0.289938099999972  0.0000
  O      O         0.660376799999995    0.807865600000014    0.601424299999962  0.0000
  O      O         0.689961400000016    0.833259200000043    0.731314200000043  0.0000
  O      O         0.752968399999986    0.897948000000042    0.628181899999959  0.0000
  O      O         0.106558400000040    0.749705500000005    0.100111800000036  0.0000
  O      O         0.714070699999979    0.421911099999988    0.634712400000012  0.0000
  O      O         0.340468099999953    0.186219100000017    0.864873699999976  0.0000
  O      O         0.399926499999992    0.255250000000046    0.765856600000006  0.0000
  Si     Si        0.169163000000026    0.277653299999997    0.350752199999988  0.0000
  Si     Si        0.177234600000020    0.924388199999953    0.919209700000010  0.0000
  Si     Si        0.629330500000037    0.257888800000046    0.425133100000039  0.0000
  Si     Si        0.779783899999984    0.665737199999967    0.216018299999973  0.0000
  Si     Si        0.715257199999996    0.171324000000027    0.078850800000055  0.0000
  Si     Si        0.184257900000034    0.921651500000053    0.420387699999992  0.0000
  Si     Si        0.685326300000042    0.422757799999999    0.713658600000031  0.0000
  O      O         0.190261299999975    0.337750000000028    0.402172400000040  0.0000
  O      O         0.164867599999980    0.308165400000007    0.272282499999960  0.0000
  O      O         0.100178899999946    0.245158500000002    0.375414800000044  0.0000
  O      O         0.248421399999984    0.891568499999948    0.903484800000001  0.0000
  O      O         0.576215700000034    0.284056200000009    0.368884200000025  0.0000
  O      O         0.811907799999972    0.657658800000036    0.138723000000027  0.0000
  O      O         0.742876900000056    0.598200300000030    0.237740000000031  0.0000
  Si     Si        0.720473599999991    0.166243399999985    0.350752199999988  0.0000
  Si     Si        0.073738700000035    0.174314900000013    0.919209700000010  0.0000
  Si     Si        0.740238100000056    0.626410800000031    0.425133100000039  0.0000
  Si     Si        0.332389700000022    0.776864199999977    0.216018299999973  0.0000
  Si     Si        0.826802799999996    0.712337499999990    0.078850800000055  0.0000
  Si     Si        0.076475299999970    0.181338200000027    0.420387699999992  0.0000
  Si     Si        0.575369099999989    0.682406600000036    0.713658600000031  0.0000
  O      O         0.660376799999995    0.187341599999968    0.402172400000040  0.0000
  O      O         0.689961400000016    0.161948000000052    0.272282499999960  0.0000
  O      O         0.752968399999986    0.097259300000019    0.375414800000044  0.0000
  O      O         0.106558400000040    0.245501699999977    0.903484800000001  0.0000
  O      O         0.714070699999979    0.573296099999993    0.368884200000025  0.0000
  O      O         0.340468099999953    0.808988200000044    0.138723000000027  0.0000
  O      O         0.399926499999992    0.739957200000049    0.237740000000031  0.0000
  Si     Si        0.831883500000004    0.717553899999984    0.350752199999988  0.0000
  Si     Si        0.823811900000010    0.070819000000029    0.919209700000010  0.0000
  Si     Si        0.371716099999958    0.737318400000049    0.425133100000039  0.0000
  Si     Si        0.221262600000045    0.329470000000015    0.216018299999973  0.0000
  Si     Si        0.285789399999999    0.823883199999955    0.078850800000055  0.0000
  Si     Si        0.816788699999961    0.073555599999963    0.420387699999992  0.0000
  Si     Si        0.315720199999987    0.572449399999982    0.713658600000031  0.0000
  O      O         0.810785200000055    0.657457199999953    0.402172400000040  0.0000
  O      O         0.836178900000050    0.687041799999975    0.272282499999960  0.0000
  O      O         0.900867599999970    0.750048699999979    0.375414800000044  0.0000
  O      O         0.752625100000046    0.103638700000033    0.903484800000001  0.0000
  O      O         0.424830799999995    0.711151100000052    0.368884200000025  0.0000
  O      O         0.189138699999944    0.337548500000025    0.138723000000027  0.0000
  O      O         0.258169700000053    0.397006899999951    0.237740000000031  0.0000
  Si     Si        0.280573000000004    0.828963799999997    0.350752199999988  0.0000
  Si     Si        0.927307799999994    0.820892299999969    0.919209700000010  0.0000
  Si     Si        0.260808399999974    0.368796399999951    0.425133100000039  0.0000
  Si     Si        0.668656800000008    0.218343000000004    0.216018299999973  0.0000
  Si     Si        0.174243700000034    0.282869699999992    0.078850800000055  0.0000
  Si     Si        0.924571199999946    0.813868999999954    0.420387699999992  0.0000
  Si     Si        0.425677500000006    0.312800599999946    0.713658600000031  0.0000
  O      O         0.340669700000035    0.807865600000014    0.402172400000040  0.0000
  O      O         0.311085100000014    0.833259200000043    0.272282499999960  0.0000
  O      O         0.248078200000009    0.897948000000042    0.375414800000044  0.0000
  O      O         0.894488199999955    0.749705500000005    0.903484800000001  0.0000
  O      O         0.286975800000050    0.421911099999988    0.368884200000025  0.0000
  O      O         0.660578399999963    0.186219100000017    0.138723000000027  0.0000
  O      O         0.601120000000037    0.255250000000046    0.237740000000031  0.0000
