data_ReferenceDataBase/8312978_111
_audit_creation_method             Generated by GULP
_audit_author_name                 Salvador R. G. Balestra
_symmetry_space_group_name_H-M     'P 1             '
_symmetry_Int_Tables_number        1

loop_
_symmetry_equiv_pos_site_id
_symmetry_equiv_pos_as_xyz
   1     +x,+y,+z                
_cell_length_a                       20.1901
_cell_length_b                       20.1901
_cell_length_c                       19.1087
_cell_angle_alpha                   90.0000
_cell_angle_beta                    90.0000
_cell_angle_gamma                   90.0000

loop_
_atom_site_label
_atom_site_type_symbol
_atom_site_fract_x
_atom_site_fract_y
_atom_site_fract_z
_atom_site_charge
  Si     Si        0.831883504905907    0.277653271090381    0.350752235853474  0.0000
  Si     Si        0.823811950610371    0.924388200115459    0.919209681793100  0.0000
  Si     Si        0.371716061330848    0.257888786312889    0.425133114859062  0.0000
  Si     Si        0.221262628115256    0.665737159985759    0.216018315974447  0.0000
  Si     Si        0.285789374486685    0.171324035390337    0.078850823017532  0.0000
  Si     Si        0.816788663373864    0.921651565436795    0.420387692654254  0.0000
  Si     Si        0.315720215498704    0.422757812046792    0.713658559003636  0.0000
  O      O         0.810785239860599    0.337750010713566    0.402172405040504  0.0000
  O      O         0.836178898480644    0.308165439092197    0.272282470029220  0.0000
  O      O         0.900867609169002    0.245158479048656    0.375414770548304  0.0000
  O      O         0.752625134177272    0.891568496794914    0.903484847023346  0.0000
  O      O         0.424830749965224    0.284056162786001    0.368884223933805  0.0000
  O      O         0.189138701913667    0.657658725126363    0.138722956143429  0.0000
  O      O         0.258169639181993    0.598200332154617    0.237740007205566  0.0000
  O      O         0.776509827334222    0.221617033511693    0.354397251031365  0.0000
  O      O         0.274728505564054    0.723398352103129    0.215136743662669  0.0000
  O      O         0.883175542395702    0.880255887011454    0.886175236995280  0.0000
  O      O         0.312664592253743    0.309744932488868    0.427806320088323  0.0000
  O      O         0.231719206700491    0.228799541802748    0.075344746281520  0.0000
  O      O         0.882098187732173    0.879178531698404    0.401466781193123  0.0000
  O      O         0.381744536684689    0.378824879746093    0.720783058772741  0.0000
  O      O         0.825807752338134    0.997603598936873    0.885425315012677  0.0000
  O      O         0.831920130840818    0.997603598791865    0.401200826303167  0.0000
  O      O         0.834147934631132    0.928237866791682    0.001798324552438  0.0000
  O      O         0.319789141650984    0.165093891771208    0.001798324693377  0.0000
  O      O         0.405242993278827    0.250684734703000    0.501798324650609  0.0000
  O      O         0.798807362779844    0.913101409768794    0.501798324922962  0.0000
  O      O         0.334017876253463    0.497603597837220    0.734165822280343  0.0000
  Si     Si        0.720473583890423    0.828963838386947    0.350752234987069  0.0000
  Si     Si        0.073738661163464    0.820892299108113    0.919209682074444  0.0000
  Si     Si        0.740238081963625    0.368796400220347    0.425133115192352  0.0000
  Si     Si        0.332389703930114    0.218342971729436    0.216018315755590  0.0000
  Si     Si        0.826802828096752    0.282869705654667    0.078850823233968  0.0000
  Si     Si        0.076475295620126    0.813869010915059    0.420387693108599  0.0000
  Si     Si        0.575369048456226    0.312800564663524    0.713658561108549  0.0000
  O      O         0.660376836111337    0.807865571863190    0.402172395096798  0.0000
  O      O         0.689961425681286    0.833259228696727    0.272282464741892  0.0000
  O      O         0.752968370157718    0.897947943228887    0.375414771748870  0.0000
  O      O         0.106558360621927    0.749705481977811    0.903484847625608  0.0000
  O      O         0.714070724747756    0.421911094008169    0.368884220376186  0.0000
  O      O         0.340468141093756    0.186219046910567    0.138722955871453  0.0000
  O      O         0.399926531654116    0.255249984350667    0.237740008217276  0.0000
  O      O         0.776509824972093    0.773590164631061    0.354397260715667  0.0000
  O      O         0.274728509187264    0.271808846812788    0.215136743681195  0.0000
  O      O         0.117870979274348    0.880255886513394    0.886175237263473  0.0000
  O      O         0.688381917457883    0.309744947620262    0.427806307123730  0.0000
  O      O         0.769327314700809    0.228799545704530    0.075344743349826  0.0000
  O      O         0.118948333786171    0.879178531422000    0.401466781398584  0.0000
  O      O         0.619301985774743    0.378824880640993    0.720783070096551  0.0000
  O      O         0.000523260895956    0.822888105565406    0.885425315245248  0.0000
  O      O         0.000523260854533    0.829000482901192    0.401200829233480  0.0000
  O      O         0.069888994732310    0.831228283545088    0.001798324774279  0.0000
  O      O         0.833032975631767    0.316869471619178    0.001798324860397  0.0000
  O      O         0.747442134948860    0.402323329370349    0.501798325793936  0.0000
  O      O         0.085025452444069    0.795887709550322    0.501798325064695  0.0000
  O      O         0.500523260778701    0.331098228125252    0.734165821288291  0.0000
  Si     Si        0.169163017932734    0.717553927116835    0.350752235311333  0.0000
  Si     Si        0.177234571672055    0.070818996915292    0.919209682081291  0.0000
  Si     Si        0.629330460962652    0.737318411419990    0.425133115079504  0.0000
  Si     Si        0.779783895921612    0.329470037254346    0.216018315740389  0.0000
  Si     Si        0.715257147771169    0.823883161748595    0.078850822801805  0.0000
  Si     Si        0.184257859057824    0.073555631874368    0.420387692708748  0.0000
  Si     Si        0.685326306776987    0.572449384987582    0.713658559281640  0.0000
  O      O         0.190261281376925    0.657457180778290    0.402172397176995  0.0000
  O      O         0.164867625573585    0.687041768131432    0.272282465882245  0.0000
  O      O         0.100178913594638    0.750048717882714    0.375414771449823  0.0000
  O      O         0.248421388168437    0.103638700160541    0.903484847418395  0.0000
  O      O         0.576215772459097    0.711151034649504    0.368884224119955  0.0000
  O      O         0.811907822996795    0.337548472804035    0.138722956205088  0.0000
  O      O         0.742876874417027    0.397006861103421    0.237740000572722  0.0000
  O      O         0.224536696100465    0.773590163748015    0.354397259114185  0.0000
  O      O         0.726318030142451    0.271808834242615    0.215136742461025  0.0000
  O      O         0.117870979996890    0.114951310138200    0.886175237179544  0.0000
  O      O         0.688381930603112    0.685462265932097    0.427806320983814  0.0000
  O      O         0.769327315498914    0.766407655283627    0.075344746168726  0.0000
  O      O         0.118948334814332    0.116028665761965    0.401466781117564  0.0000
  O      O         0.619301985464259    0.616382317112409    0.720783058564429  0.0000
  O      O         0.175238769869187    0.997603598170751    0.885425315288338  0.0000
  O      O         0.169126391556707    0.997603598487272    0.401200826676333  0.0000
  O      O         0.166898587572334    0.066969330216592    0.001798324838653  0.0000
  O      O         0.681257380583381    0.830113305455552    0.001798324514056  0.0000
  O      O         0.595803528769373    0.744522462711768    0.501798324754426  0.0000
  O      O         0.202239159447314    0.082105787654337    0.501798324996846  0.0000
  O      O         0.667028646178034    0.497603599229842    0.734165822826855  0.0000
  Si     Si        0.280572938376473    0.166243359221935    0.350752234949508  0.0000
  Si     Si        0.927307861204130    0.174314897928338    0.919209681779143  0.0000
  Si     Si        0.260808440770656    0.626410799023849    0.425133115113582  0.0000
  Si     Si        0.668656818482610    0.776864226086723    0.216018315793109  0.0000
  Si     Si        0.174243694528985    0.712337491736891    0.078850823221252  0.0000
  Si     Si        0.924571227052744    0.181338186231559    0.420387692544311  0.0000
  Si     Si        0.425677473859691    0.682406632639610    0.713658559835073  0.0000
  O      O         0.340669685786405    0.187341625984363    0.402172395316016  0.0000
  O      O         0.311085096982931    0.161947969078408    0.272282464863828  0.0000
  O      O         0.248078152247399    0.097259254276446    0.375414771783017  0.0000
  O      O         0.894488161807973    0.245501715020741    0.903484846984260  0.0000
  O      O         0.286975810842981    0.573296108527243    0.368884223448388  0.0000
  O      O         0.660578381166347    0.808988150536938    0.138722955749601  0.0000
  O      O         0.601119990658695    0.739957213808643    0.237740008558820  0.0000
  O      O         0.224536697143694    0.221617032825886    0.354397260142622  0.0000
  O      O         0.726318013118757    0.723398350864377    0.215136743820783  0.0000
  O      O         0.883175543127649    0.114951310445258    0.886175237185914  0.0000
  O      O         0.312664594679495    0.685462260761726    0.427806316794087  0.0000
  O      O         0.231719206202919    0.766407653743391    0.075344745883244  0.0000
  O      O         0.882098188904095    0.116028665705524    0.401466781226615  0.0000
  O      O         0.381744536715066    0.616382315944311    0.720783062992712  0.0000
  O      O         0.000523261556263    0.172319091337167    0.885425315163029  0.0000
  O      O         0.000523261786687    0.166206714219297    0.401200828850156  0.0000
  O      O         0.931157527598902    0.163978913875805    0.001798324540255  0.0000
  O      O         0.168013548140245    0.678337725549331    0.001798325067421  0.0000
  O      O         0.253604386751921    0.592883868694004    0.501798325100800  0.0000
  O      O         0.916021069767553    0.199319487759111    0.501798324403482  0.0000
  O      O         0.500523261141989    0.664108968395159    0.734165821098961  0.0000
  Si     Si        0.831883503670354    0.717553928068813    0.652844414589741  0.0000
  Si     Si        0.823811951749635    0.070818997558984    0.084386967308846  0.0000
  Si     Si        0.371716060828196    0.737318409771643    0.578463534819890  0.0000
  Si     Si        0.221262628632031    0.329470036243487    0.787578333657166  0.0000
  Si     Si        0.285789373623592    0.823883160283552    0.924745826741713  0.0000
  Si     Si        0.816788663534921    0.073555632796110    0.583208956637046  0.0000
  Si     Si        0.315720215620172    0.572449384187075    0.289938090334594  0.0000
  O      O         0.810785240127434    0.657457182508455    0.601424252070573  0.0000
  O      O         0.836178895958165    0.687041768498542    0.731314183814928  0.0000
  O      O         0.900867608125923    0.750048718486146    0.628181878769605  0.0000
  O      O         0.752625136423092    0.103638702975334    0.100111802679888  0.0000
  O      O         0.424830750031207    0.711151034772705    0.634712426066224  0.0000
  O      O         0.189138702528922    0.337548471072859    0.864873693525829  0.0000
  O      O         0.258169639641665    0.397006863997625    0.765856642714800  0.0000
  O      O         0.776509825706821    0.773590165086300    0.649199391222806  0.0000
  O      O         0.274728505833427    0.271808843684850    0.788459905957980  0.0000
  O      O         0.883175544431024    0.114951309240818    0.117421411814580  0.0000
  O      O         0.312664592920545    0.685462262463092    0.575790331066324  0.0000
  O      O         0.231719206126491    0.766407653812656    0.928251903795907  0.0000
  O      O         0.882098187843518    0.116028666330815    0.602129868308937  0.0000
  O      O         0.381744536947731    0.616382315997686    0.282813589396365  0.0000
  O      O         0.825807752017462    0.997603598743652    0.118171334123316  0.0000
  O      O         0.831920130387838    0.997603599251041    0.602395823027373  0.0000
  O      O         0.834147935386433    0.066969330378202    0.001798324563260  0.0000
  O      O         0.319789140978006    0.830113303886364    0.001798324931186  0.0000
  O      O         0.405242992721639    0.744522461227176    0.501798325045218  0.0000
  O      O         0.798807363242653    0.082105788537924    0.501798324317485  0.0000
  O      O         0.334017876196682    0.497603598248412    0.269430827299193  0.0000
  Si     Si        0.280572937519191    0.828963836914233    0.652844414740506  0.0000
  Si     Si        0.927307860523945    0.820892299642873    0.084386967227210  0.0000
  Si     Si        0.260808441045133    0.368796397343650    0.578463534571721  0.0000
  Si     Si        0.668656819173014    0.218342972639851    0.787578334018172  0.0000
  Si     Si        0.174243695337359    0.282869704505612    0.924745826424214  0.0000
  Si     Si        0.924571226121886    0.813869011466200    0.583208957070668  0.0000
  Si     Si        0.425677474426390    0.312800563434887    0.289938089572882  0.0000
  O      O         0.340669684328381    0.807865569986931    0.601424253609772  0.0000
  O      O         0.311085096796915    0.833259227084829    0.731314184518816  0.0000
  O      O         0.248078151318371    0.897947941985745    0.628181878239502  0.0000
  O      O         0.894488161161911    0.749705482472887    0.100111801148116  0.0000
  O      O         0.286975809749662    0.421911088372983    0.634712426269698  0.0000
  O      O         0.660578382095999    0.186219048488403    0.864873694155102  0.0000
  O      O         0.601119990636911    0.255249983200552    0.765856639967400  0.0000
  O      O         0.224536696305557    0.773590163467774    0.649199390274789  0.0000
  O      O         0.726318011762022    0.271808849811929    0.788459905698609  0.0000
  O      O         0.883175542116616    0.880255886837440    0.117421412187677  0.0000
  O      O         0.312664596231144    0.309744936465045    0.575790334337149  0.0000
  O      O         0.231719206702424    0.228799541921131    0.928251903666409  0.0000
  O      O         0.882098187838874    0.879178532062299    0.602129868631666  0.0000
  O      O         0.381744536427315    0.378824879574759    0.282813584928917  0.0000
  O      O         0.000523260720123    0.822888105676822    0.118171334180901  0.0000
  O      O         0.000523260916859    0.829000482943223    0.602395820934407  0.0000
  O      O         0.931157527409988    0.831228284802147    0.001798324630181  0.0000
  O      O         0.168013549597790    0.316869470876510    0.001798324529449  0.0000
  O      O         0.253604386891608    0.402323327442806    0.501798324488771  0.0000
  O      O         0.916021069216868    0.795887710185416    0.501798325165240  0.0000
  O      O         0.500523261317667    0.331098228750615    0.269430828445582  0.0000
  Si     Si        0.169163018333379    0.277653269283287    0.652844414380821  0.0000
  Si     Si        0.177234570928569    0.924388199446655    0.084386967462481  0.0000
  Si     Si        0.629330461912773    0.257888787837788    0.578463534769447  0.0000
  Si     Si        0.779783893439267    0.665737160908964    0.787578333901013  0.0000
  Si     Si        0.715257148809985    0.171324036792011    0.924745826910879  0.0000
  Si     Si        0.184257858249215    0.921651564710205    0.583208957210738  0.0000
  Si     Si        0.685326307373040    0.422757814621598    0.289938092028898  0.0000
  O      O         0.190261281884029    0.337750015032529    0.601424251975776  0.0000
  O      O         0.164867626060892    0.308165428611449    0.731314183671512  0.0000
  O      O         0.100178913848538    0.245158478965200    0.628181878501427  0.0000
  O      O         0.248421387246133    0.891568495567023    0.100111801968984  0.0000
  O      O         0.576215774841223    0.284056168501021    0.634712425102132  0.0000
  O      O         0.811907819687853    0.657658726058811    0.864873693724280  0.0000
  O      O         0.742876882361601    0.598200333182686    0.765856643166473  0.0000
  O      O         0.224536696300532    0.221617032269388    0.649199390948831  0.0000
  O      O         0.726318016298221    0.723398353519074    0.788459906121656  0.0000
  O      O         0.117870979043011    0.880255886694463    0.117421412278322  0.0000
  O      O         0.688381934738022    0.309744929473508    0.575790324472533  0.0000
  O      O         0.769327316542355    0.228799543109827    0.928251903315129  0.0000
  O      O         0.118948333892047    0.879178531182091    0.602129868734656  0.0000
  O      O         0.619301982302953    0.378824886443513    0.282813605440286  0.0000
  O      O         0.175238769892747    0.997603598202256    0.118171334326904  0.0000
  O      O         0.169126391174181    0.997603598263328    0.602395823192301  0.0000
  O      O         0.166898586511129    0.928237866571188    0.001798324776484  0.0000
  O      O         0.681257381561881    0.165093892671867    0.001798325112702  0.0000
  O      O         0.595803529165913    0.250684737283220    0.501798325331878  0.0000
  O      O         0.202239158833956    0.913101408780974    0.501798324985757  0.0000
  O      O         0.667028646973040    0.497603600073798    0.269430827003551  0.0000
  Si     Si        0.720473584350886    0.166243360440011    0.652844414820986  0.0000
  Si     Si        0.073738662032811    0.174314897644045    0.084386967307835  0.0000
  Si     Si        0.740238081068035    0.626410799898001    0.578463534901564  0.0000
  Si     Si        0.332389702788465    0.776864224302158    0.787578333949448  0.0000
  Si     Si        0.826802826897421    0.712337492622848    0.924745826525893  0.0000
  Si     Si        0.076475295816229    0.181338186091205    0.583208956742512  0.0000
  Si     Si        0.575369047987396    0.682406634438243    0.289938089631768  0.0000
  O      O         0.660376834767495    0.187341626804089    0.601424256679565  0.0000
  O      O         0.689961428179176    0.161947969944693    0.731314185866357  0.0000
  O      O         0.752968370358280    0.097259255676023    0.628181877367608  0.0000
  O      O         0.106558361223994    0.245501714878841    0.100111801237280  0.0000
  O      O         0.714070713047473    0.573296108446370    0.634712426707588  0.0000
  O      O         0.340468140221666    0.808988148976314    0.864873693797369  0.0000
  O      O         0.399926530082802    0.739957210573551    0.765856642022500  0.0000
  O      O         0.776509824717217    0.221617034734036    0.649199387598500  0.0000
  O      O         0.274728507005893    0.723398350538880    0.788459906128320  0.0000
  O      O         0.117870980347530    0.114951310420881    0.117421412411308  0.0000
  O      O         0.688381925363453    0.685462260280333    0.575790335037014  0.0000
  O      O         0.769327315389378    0.766407655047360    0.928251903715556  0.0000
  O      O         0.118948333977778    0.116028665421100    0.602129868373704  0.0000
  O      O         0.619301985980230    0.616382318443507    0.282813584261719  0.0000
  O      O         0.000523261796030    0.172319091586173    0.118171334128096  0.0000
  O      O         0.000523260958090    0.166206714669759    0.602395820542833  0.0000
  O      O         0.069888995079535    0.163978912481659    0.001798324734945  0.0000
  O      O         0.833032972761540    0.678337726272446    0.001798324708796  0.0000
  O      O         0.747442135300441    0.592883870055402    0.501798324783013  0.0000
  O      O         0.085025452941032    0.199319487459150    0.501798324823113  0.0000
  O      O         0.500523261089750    0.664108969172504    0.269430828657077  0.0000
  Si     Si        0.169163017961984    0.717553927006922    0.652844414950496  0.0000
  Si     Si        0.177234571875844    0.070818997006718    0.084386967553821  0.0000
  Si     Si        0.629330460165618    0.737318411036746    0.578463534762678  0.0000
  Si     Si        0.779783893961430    0.329470037541110    0.787578334264085  0.0000
  Si     Si        0.715257147913447    0.823883161712779    0.924745826258038  0.0000
  Si     Si        0.184257858484564    0.073555631719700    0.583208957171771  0.0000
  Si     Si        0.685326306666718    0.572449386279830    0.289938089598864  0.0000
  O      O         0.190261281112199    0.657457180005697    0.601424253837918  0.0000
  O      O         0.164867625727393    0.687041768782234    0.731314184749905  0.0000
  O      O         0.100178913604039    0.750048717695336    0.628181878707851  0.0000
  O      O         0.248421388486397    0.103638700104218    0.100111802093950  0.0000
  O      O         0.576215769707347    0.711151039723339    0.634712426641302  0.0000
  O      O         0.811907819666063    0.337548472039827    0.864873694246772  0.0000
  O      O         0.742876887113338    0.397006867079214    0.765856640390345  0.0000
  Si     Si        0.280572937967502    0.166243359087993    0.652844414251866  0.0000
  Si     Si        0.927307861528116    0.174314897488013    0.084386967358884  0.0000
  Si     Si        0.260808440698613    0.626410799302995    0.578463534917396  0.0000
  Si     Si        0.668656818692133    0.776864225519082    0.787578333638262  0.0000
  Si     Si        0.174243694592209    0.712337491640681    0.924745826817831  0.0000
  Si     Si        0.924571226228216    0.181338186659637    0.583208956419515  0.0000
  Si     Si        0.425677473888018    0.682406633033100    0.289938090519393  0.0000
  O      O         0.340669683427826    0.187341626288675    0.601424251656660  0.0000
  O      O         0.311085098770029    0.161947968847242    0.731314183431495  0.0000
  O      O         0.248078151515801    0.097259254060458    0.628181878310849  0.0000
  O      O         0.894488161034155    0.245501713746066    0.100111802933195  0.0000
  O      O         0.286975812607101    0.573296109533479    0.634712426368758  0.0000
  O      O         0.660578381236102    0.808988150659403    0.864873693350967  0.0000
  O      O         0.601119992115347    0.739957210002172    0.765856643125299  0.0000
  Si     Si        0.831883503993343    0.277653270284785    0.652844415074504  0.0000
  Si     Si        0.823811950409435    0.924388200020387    0.084386967295671  0.0000
  Si     Si        0.371716061735629    0.257888786102977    0.578463534576962  0.0000
  Si     Si        0.221262628289991    0.665737159584834    0.787578334211779  0.0000
  Si     Si        0.285789374280700    0.171324035338975    0.924745826448871  0.0000
  Si     Si        0.816788663354352    0.921651565710039    0.583208957168365  0.0000
  Si     Si        0.315720215843038    0.422757812006249    0.289938089368458  0.0000
  O      O         0.810785241578188    0.337750020264450    0.601424257122693  0.0000
  O      O         0.836178896475747    0.308165425223161    0.731314186131780  0.0000
  O      O         0.900867608057489    0.245158479763063    0.628181877881487  0.0000
  O      O         0.752625133860610    0.891568496908067    0.100111801913644  0.0000
  O      O         0.424830752233298    0.284056157531258    0.634712426399059  0.0000
  O      O         0.189138702253518    0.657658724958831    0.864873694146318  0.0000
  O      O         0.258169638195484    0.598200331246842    0.765856642431728  0.0000
  Si     Si        0.720473583905175    0.828963838110398    0.652844414230122  0.0000
  Si     Si        0.073738661065532    0.820892299231154    0.084386967509984  0.0000
  Si     Si        0.740238081306877    0.368796397522680    0.578463535018960  0.0000
  Si     Si        0.332389703190553    0.218342971416140    0.787578333602718  0.0000
  Si     Si        0.826802828058064    0.282869705399152    0.924745826904809  0.0000
  Si     Si        0.076475295640763    0.813869010796345    0.583208957017241  0.0000
  Si     Si        0.575369048446835    0.312800565980169    0.289938092207095  0.0000
  O      O         0.660376838681293    0.807865570810694    0.601424251473630  0.0000
  O      O         0.689961422808926    0.833259228154914    0.731314183303823  0.0000
  O      O         0.752968370257685    0.897947943220007    0.628181878181718  0.0000
  O      O         0.106558360584594    0.749705482179419    0.100111802233879  0.0000
  O      O         0.714070703409931    0.421911084956851    0.634712425578644  0.0000
  O      O         0.340468140815844    0.186219046394456    0.864873693375802  0.0000
  O      O         0.399926529866807    0.255249986582720    0.765856642765294  0.0000
  Si     Si        0.169163018660880    0.277653269325767    0.350752234560187  0.0000
  Si     Si        0.177234571036501    0.924388199354087    0.919209682117492  0.0000
  Si     Si        0.629330460009779    0.257888788169058    0.425133115056852  0.0000
  Si     Si        0.779783893692197    0.665737161422443    0.216018315749420  0.0000
  Si     Si        0.715257149228124    0.171324037499201    0.078850823136659  0.0000
  Si     Si        0.184257858257413    0.921651564848178    0.420387692759264  0.0000
  Si     Si        0.685326306130893    0.422757812721778    0.713658561479496  0.0000
  O      O         0.190261281527074    0.337750017017718    0.402172394808048  0.0000
  O      O         0.164867626442113    0.308165426413166    0.272282464305103  0.0000
  O      O         0.100178914326363    0.245158479168863    0.375414771111535  0.0000
  O      O         0.248421387434191    0.891568495567819    0.903484847738751  0.0000
  O      O         0.576215767075785    0.284056148881688    0.368884220269564  0.0000
  O      O         0.811907819345959    0.657658726390975    0.138722955784120  0.0000
  O      O         0.742876885821009    0.598200332595611    0.237740008972444  0.0000
  Si     Si        0.720473584864451    0.166243361018524    0.350752235815408  0.0000
  Si     Si        0.073738661761896    0.174314897461515    0.919209682097750  0.0000
  Si     Si        0.740238081057664    0.626410801033086    0.425133115126290  0.0000
  Si     Si        0.332389702473699    0.776864224631635    0.216018316061956  0.0000
  Si     Si        0.826802826882562    0.712337492682404    0.078850822727071  0.0000
  Si     Si        0.076475296448594    0.181338186164206    0.420387692866854  0.0000
  Si     Si        0.575369047771314    0.682406633952831    0.713658559075858  0.0000
  O      O         0.660376845223899    0.187341629666197    0.402172404823411  0.0000
  O      O         0.689961416198067    0.161947970297038    0.272282469793479  0.0000
  O      O         0.752968371806404    0.097259255744548    0.375414770559514  0.0000
  O      O         0.106558361106720    0.245501714608368    0.903484847955502  0.0000
  O      O         0.714070706806862    0.573296112072757    0.368884224359512  0.0000
  O      O         0.340468140108193    0.808988149396090    0.138722956200351  0.0000
  O      O         0.399926529302192    0.739957209852788    0.237740007390681  0.0000
  Si     Si        0.831883503723302    0.717553928362431    0.350752234880624  0.0000
  Si     Si        0.823811951191702    0.070818997682223    0.919209681864123  0.0000
  Si     Si        0.371716061113428    0.737318409818842    0.425133115157982  0.0000
  Si     Si        0.221262629035228    0.329470036654807    0.216018315425927  0.0000
  Si     Si        0.285789373539153    0.823883160347169    0.078850823117485  0.0000
  Si     Si        0.816788664269976    0.073555632405597    0.420387692181034  0.0000
  Si     Si        0.315720215671252    0.572449384077177    0.713658560092695  0.0000
  O      O         0.810785240783933    0.657457180201958    0.402172394643286  0.0000
  O      O         0.836178896288896    0.687041772066373    0.272282464405700  0.0000
  O      O         0.900867608030858    0.750048718310977    0.375414771655981  0.0000
  O      O         0.752625134836536    0.103638701575018    0.903484847435620  0.0000
  O      O         0.424830751103837    0.711151036876902    0.368884223624045  0.0000
  O      O         0.189138703210578    0.337548471186930    0.138722955406476  0.0000
  O      O         0.258169637386720    0.397006865467556    0.237740007956114  0.0000
  Si     Si        0.280572937476187    0.828963837029101    0.350752235382686  0.0000
  Si     Si        0.927307860607916    0.820892299667986    0.919209682053263  0.0000
  Si     Si        0.260808441123907    0.368796396758086    0.425133114750768  0.0000
  Si     Si        0.668656822124057    0.218342973499929    0.216018315711335  0.0000
  Si     Si        0.174243695530814    0.282869704637303    0.078850822708711  0.0000
  Si     Si        0.924571226098303    0.813869011286288    0.420387693196694  0.0000
  Si     Si        0.425677474216142    0.312800562876189    0.713658558967579  0.0000
  O      O         0.340669683535679    0.807865569839215    0.402172397322614  0.0000
  O      O         0.311085097536959    0.833259227354600    0.272282465919996  0.0000
  O      O         0.248078151244840    0.897947942089333    0.375414771693062  0.0000
  O      O         0.894488161092221    0.749705482600884    0.903484848056330  0.0000
  O      O         0.286975814234458    0.421911086186187    0.368884223668700  0.0000
  O      O         0.660578382772036    0.186219047405258    0.138722956710371  0.0000
  O      O         0.601120000000037    0.255250000000046    0.237740000000031  0.0000
