data_ReferenceDataBase/8317769_111
_audit_creation_method             Generated by GULP
_audit_author_name                 Salvador R. G. Balestra
_symmetry_space_group_name_H-M     'P 1             '
_symmetry_Int_Tables_number        1

loop_
_symmetry_equiv_pos_site_id
_symmetry_equiv_pos_as_xyz
   1     +x,+y,+z                
_cell_length_a                       16.1239
_cell_length_b                       16.1239
_cell_length_c                       20.6773
_cell_angle_alpha                   90.0000
_cell_angle_beta                    90.0000
_cell_angle_gamma                   90.0000

loop_
_atom_site_label
_atom_site_type_symbol
_atom_site_fract_x
_atom_site_fract_y
_atom_site_fract_z
_atom_site_charge
  Si     Si        0.469619377427670    0.264941871510238    0.851780571562904  0.0000
  Si     Si        0.781598491644257    0.911149844175568    0.836838371890816  0.0000
  Si     Si        0.143284771973938    0.275980162951810    0.698853438739004  0.0000
  Si     Si        0.275732597419893    0.407974376200152    0.295375020919043  0.0000
  Si     Si        0.810331153609380    0.672487112889357    0.926944557084452  0.0000
  O      O         0.562496306337380    0.228417026593411    0.848017546946955  0.0000
  O      O         0.469513968039250    0.349896879941783    0.891533318738468  0.0000
  O      O         0.433162018062977    0.281705047103963    0.781230874382231  0.0000
  O      O         0.414635624229339    0.196488790855170    0.888414307008715  0.0000
  O      O         0.732064964151550    0.881853361939916    0.773770360735158  0.0000
  O      O         0.730871704761611    0.881752446384996    0.899274972005350  0.0000
  O      O         0.787648333346206    0.010075748043586    0.839819275927049  0.0000
  O      O         0.187244633450320    0.365285365463172    0.690630008003000  0.0000
  Si     Si        0.932434138769578    0.068656214411111    0.574909630408611  0.0000
  O      O         0.873737018136256    0.871272370872759    0.836923808074811  0.0000
  O      O         0.204988786724050    0.202524149622331    0.678320014312703  0.0000
  O      O         0.348384412255674    0.345919748970766    0.314689848611371  0.0000
  O      O         0.722459819848476    0.719995167291250    0.918836609699907  0.0000
  O      O         0.909279767713758    0.091810582567809    0.500843196707294  0.0000
  O      O         0.001777500942443    0.999312854484391    0.577383047902441  0.0000
  O      O         0.831478282918222    0.653815161787028    0.000843198682189  0.0000
  Si     Si        0.236148483693254    0.967154720496801    0.351780573900224  0.0000
  Si     Si        0.589940514240744    0.279133832589196    0.336838368246234  0.0000
  Si     Si        0.225110197411862    0.640820120515407    0.198853441941369  0.0000
  Si     Si        0.093115968699374    0.773267944493154    0.795375021425947  0.0000
  Si     Si        0.828603242190195    0.307866494575841    0.426944558859869  0.0000
  O      O         0.272673329220828    0.060031649455508    0.348017549380114  0.0000
  O      O         0.151193480832730    0.967049308361366    0.391533328622770  0.0000
  O      O         0.219385297139982    0.930697367090694    0.281230876145545  0.0000
  O      O         0.304601568775986    0.912170964708168    0.388414301749927  0.0000
  O      O         0.619236995153161    0.229600305218451    0.273770356786038  0.0000
  O      O         0.619337910712850    0.228407044409497    0.399274967786217  0.0000
  O      O         0.491014610580338    0.285183676174256    0.339819272526555  0.0000
  O      O         0.135804990686635    0.684779974888604    0.190630015346714  0.0000
  Si     Si        0.432434141356674    0.429969483541664    0.074909630936246  0.0000
  O      O         0.629817988474682    0.371272358905060    0.336923804573844  0.0000
  O      O         0.298566203065554    0.702524145132979    0.178320017386903  0.0000
  O      O         0.155170594279558    0.845919762432453    0.814689845709714  0.0000
  O      O         0.781095188114113    0.219995160205230    0.418836611745331  0.0000
  O      O         0.409279768275886    0.406815111834954    0.000843198173784  0.0000
  O      O         0.501777502767877    0.499312844649377    0.077383046773919  0.0000
  O      O         0.847275187646277    0.329013627786421    0.500843200669034  0.0000
  Si     Si        0.533935625068938    0.733683831057040    0.851780575762029  0.0000
  Si     Si        0.221956509962480    0.087475864576478    0.836838366901242  0.0000
  Si     Si        0.860270222547438    0.722645545274752    0.698853440568100  0.0000
  Si     Si        0.727822415544419    0.590651309971379    0.295375019358924  0.0000
  Si     Si        0.193223851055471    0.326138589192139    0.926944560696727  0.0000
  O      O         0.441058696567998    0.770208677562394    0.848017552852327  0.0000
  O      O         0.534041036706402    0.648728824393340    0.891533325484966  0.0000
  O      O         0.570392979424958    0.716920651275236    0.781230877520039  0.0000
  O      O         0.588919380620196    0.802136912767315    0.888414307769571  0.0000
  O      O         0.271490038941029    0.116772347990017    0.773770356493144  0.0000
  O      O         0.272683297656891    0.116873259043345    0.899274967355512  0.0000
  O      O         0.215906665902879    0.988549960979274    0.839819270085582  0.0000
  O      O         0.816310366624013    0.633340339360535    0.690630012691549  0.0000
  Si     Si        0.071120860223959    0.929969491499675    0.574909635458098  0.0000
  O      O         0.129817983894599    0.127353338745004    0.836923802893633  0.0000
  O      O         0.798566199623227    0.796101552120951    0.678320016407222  0.0000
  O      O         0.655170599448583    0.652705935514299    0.314689847301803  0.0000
  O      O         0.281095185277650    0.278630535949673    0.918836611172757  0.0000
  O      O         0.094275235264503    0.906815113002244    0.500843204505084  0.0000
  O      O         0.172076722305639    0.344810533733934    0.000843203337613  0.0000
  Si     Si        0.767406524016045    0.031470966301821    0.351780574722314  0.0000
  Si     Si        0.413614498170936    0.719491850837405    0.336838372310444  0.0000
  Si     Si        0.778444810902527    0.357805566429868    0.198853436274552  0.0000
  Si     Si        0.910439033042099    0.225357760588071    0.795375020177606  0.0000
  Si     Si        0.174951768495436    0.690759193918825    0.426944557589843  0.0000
  O      O         0.730881679936967    0.938594036775654    0.348017550881492  0.0000
  O      O         0.852361533935482    0.031576376540300    0.391533319970661  0.0000
  O      O         0.784169697548864    0.067928325152030    0.281230877091170  0.0000
  O      O         0.698953444200296    0.086454718807559    0.388414311255675  0.0000
  O      O         0.384318015404274    0.769025378046507    0.273770361325073  0.0000
  O      O         0.384217102550317    0.770218640510543    0.399274971635911  0.0000
  O      O         0.512540401806297    0.713442006849884    0.339819275698776  0.0000
  O      O         0.867750016647409    0.313845710970097    0.190630006864718  0.0000
  Si     Si        0.571120863628802    0.568656206451976    0.074909633290636  0.0000
  O      O         0.373737023551225    0.627353324710943    0.336923809758955  0.0000
  O      O         0.704988803465843    0.296101543502354    0.178320012589138  0.0000
  O      O         0.848384405761513    0.152705946660245    0.814689851145773  0.0000
  O      O         0.222459823870661    0.778630527029707    0.418836607939973  0.0000
  O      O         0.594275237116322    0.591810582881151    0.000843201650909  0.0000
  O      O         0.156279817502897    0.669612069844019    0.500843200036358  0.0000
  Si     Si        0.969619373425662    0.233683832750261    0.649905826798929  0.0000
  Si     Si        0.281598488436792    0.587475866564332    0.664848033988714  0.0000
  Si     Si        0.643284777173670    0.222645544567249    0.802832958455043  0.0000
  Si     Si        0.775732593266344    0.090651310959120    0.206311380618807  0.0000
  Si     Si        0.310331151299403    0.826138591618832    0.574741840848775  0.0000
  O      O         0.062496300018217    0.270208683888185    0.653668851446735  0.0000
  O      O         0.969513964063676    0.148728829901425    0.610153071795276  0.0000
  O      O         0.933162021683584    0.216920643769385    0.720455524748404  0.0000
  O      O         0.914635616144434    0.302136916303751    0.613272099077623  0.0000
  O      O         0.232064961640017    0.616772347987253    0.727916045530771  0.0000
  O      O         0.230871701446404    0.616873262869976    0.602411434045286  0.0000
  O      O         0.287648329229895    0.488549963301247    0.661867129293656  0.0000
  O      O         0.687244632043159    0.133340338239021    0.811056386075609  0.0000
  Si     Si        0.432434140707402    0.429969489390054    0.926776766452633  0.0000
  O      O         0.373737015397422    0.627353339197434    0.664762597672000  0.0000
  O      O         0.704988801388568    0.296101550842736    0.823366382414332  0.0000
  O      O         0.848384410179670    0.152705936771439    0.186996554674967  0.0000
  O      O         0.222459816028436    0.778630539206424    0.582849788618247  0.0000
  O      O         0.501777501835962    0.499312850836080    0.924303353466508  0.0000
  O      O         0.331478284256452    0.844810533929908    0.500843198554890  0.0000
  Si     Si        0.267406524898050    0.467154721364069    0.149905828192145  0.0000
  Si     Si        0.913614496217508    0.779133833822291    0.164848030812268  0.0000
  Si     Si        0.278444811522787    0.140820120282458    0.302832960803906  0.0000
  Si     Si        0.410439029901749    0.273267950097472    0.706311377827486  0.0000
  Si     Si        0.674951766334705    0.807866495266055    0.074741843620747  0.0000
  O      O         0.230881679310527    0.560031650187989    0.153668852780980  0.0000
  O      O         0.352361528616234    0.467049310158225    0.110153074748959  0.0000
  O      O         0.284169710200137    0.430697367661924    0.220455525894540  0.0000
  O      O         0.198953440674722    0.412170965155468    0.113272099347776  0.0000
  O      O         0.884318014636239    0.729600306693379    0.227916042278248  0.0000
  O      O         0.884217098728039    0.728407045945518    0.102411431170774  0.0000
  O      O         0.012540400099493    0.785183676044745    0.161867126429344  0.0000
  O      O         0.367750018087760    0.184779975125291    0.311056388040597  0.0000
  Si     Si        0.071120865994820    0.929969483193375    0.426776770821363  0.0000
  O      O         0.873737022856084    0.871272360369831    0.164762594463563  0.0000
  O      O         0.204988805579935    0.202524144009773    0.323366385591731  0.0000
  O      O         0.348384411651682    0.345919773837767    0.686996554326120  0.0000
  O      O         0.722459820363450    0.719995161205095    0.082849790574281  0.0000
  O      O         0.001777505287362    0.999312844475707    0.424303353119844  0.0000
  O      O         0.656279817516245    0.829013626876618    0.000843202112135  0.0000
  Si     Si        0.033935622033338    0.764941872702035    0.649905827693275  0.0000
  Si     Si        0.721956506973981    0.411149845240292    0.664848028118558  0.0000
  Si     Si        0.360270224879104    0.775980161156073    0.802832965339863  0.0000
  Si     Si        0.227822412855475    0.907974376400999    0.206311381062046  0.0000
  Si     Si        0.693223847455678    0.172487113688570    0.574741843658110  0.0000
  O      O         0.941058693490959    0.728417026385974    0.653668852158901  0.0000
  O      O         0.034041029819972    0.849896882859031    0.610153082703980  0.0000
  O      O         0.070392981953381    0.781705046509650    0.720455524963320  0.0000
  O      O         0.088919375185952    0.696488794364210    0.613272090160113  0.0000
  O      O         0.771490035804371    0.381853362592031    0.727916038545737  0.0000
  O      O         0.772683293220738    0.381752448937411    0.602411427217405  0.0000
  O      O         0.715906663990895    0.510075749053652    0.661867124970740  0.0000
  O      O         0.316310368983479    0.865285366764495    0.811056394854141  0.0000
  Si     Si        0.571120863636406    0.568656211490091    0.926776768987626  0.0000
  O      O         0.629817980887975    0.371272370706765    0.664762592173222  0.0000
  O      O         0.298566202215093    0.702524153767491    0.823366389549516  0.0000
  O      O         0.155170599171745    0.845919748354167    0.186996551253426  0.0000
  O      O         0.781095180460581    0.219995169441078    0.582849791879513  0.0000
  O      O         0.672076721412062    0.153815161209906    0.500843201690438  0.0000
  Si     Si        0.736148483650056    0.531470967040607    0.149905825121898  0.0000
  Si     Si        0.089940512009308    0.219491850577652    0.164848030510490  0.0000
  Si     Si        0.725110198698995    0.857805565468222    0.302832962900150  0.0000
  Si     Si        0.593115966938580    0.725357762658301    0.706311381658898  0.0000
  Si     Si        0.328603239542362    0.190759194244918    0.074741842019001  0.0000
  O      O         0.772673328230336    0.438594037891897    0.153668848508181  0.0000
  O      O         0.651193475329171    0.531576378416980    0.110153077643889  0.0000
  O      O         0.719385307501324    0.567928323836890    0.220455523083139  0.0000
  O      O         0.804601564854388    0.586454720771293    0.113272090774234  0.0000
  O      O         0.119236995401009    0.269025377961966    0.227916041289449  0.0000
  O      O         0.119337907768055    0.270218639764331    0.102411431016095  0.0000
  O      O         0.991014608388177    0.213442007008016    0.161867127277948  0.0000
  O      O         0.635804992829552    0.813845709646009    0.311056391209191  0.0000
  Si     Si        0.932434144103279    0.068656205703000    0.426776765802114  0.0000
  O      O         0.129817985960276    0.127353324298742    0.164762593304478  0.0000
  O      O         0.798566205738630    0.796101542660844    0.323366387053788  0.0000
  O      O         0.655170592545980    0.652705946980119    0.686996552532055  0.0000
  O      O         0.281095185681067    0.278630527913694    0.082849792052059  0.0000
  O      O         0.347275186201013    0.169612067960553    0.000843199247621  0.0000
  Si     Si        0.533935626465556    0.733683823986243    0.149905828198059  0.0000
  Si     Si        0.221956512622654    0.087475851251497    0.164848029691449  0.0000
  Si     Si        0.860270228766628    0.722645536081016    0.302832962433909  0.0000
  Si     Si        0.727822407583378    0.590651319891340    0.706311380199885  0.0000
  Si     Si        0.193223851797630    0.326138582162197    0.074741844771936  0.0000
  O      O         0.441058697829622    0.770208669992718    0.153668852826712  0.0000
  O      O         0.534041035537737    0.648728817132549    0.110153078924039  0.0000
  O      O         0.570392983019987    0.716920643513890    0.220455525604172  0.0000
  O      O         0.588919381592855    0.802136905547368    0.113272095520644  0.0000
  O      O         0.271490039850519    0.116772333691858    0.227916040882320  0.0000
  O      O         0.272683300186079    0.116873248821823    0.102411429847923  0.0000
  O      O         0.215906670910069    0.988549947323539    0.161867125697694  0.0000
  O      O         0.816310373437807    0.633340329847609    0.311056390646886  0.0000
  Si     Si        0.767406521668745    0.031470975878083    0.649905827631966  0.0000
  Si     Si        0.413614490548991    0.719491865074203    0.664848033359554  0.0000
  Si     Si        0.778444807632793    0.357805574987511    0.802832958276078  0.0000
  Si     Si        0.910439036153732    0.225357753734116    0.206311380183852  0.0000
  Si     Si        0.174951762157945    0.690759204652292    0.574741841652058  0.0000
  O      O         0.730881676510271    0.938594046697800    0.653668852094151  0.0000
  O      O         0.852361525360118    0.031576388300441    0.610153073962847  0.0000
  O      O         0.784169707181074    0.067928329168201    0.720455525549130  0.0000
  O      O         0.698953436892563    0.086454731259512    0.613272099029541  0.0000
  O      O         0.384318010440545    0.769025392690612    0.727916044944078  0.0000
  O      O         0.384217093585483    0.770218653031213    0.602411433838213  0.0000
  O      O         0.512540394135317    0.713442020559615    0.661867128366797  0.0000
  O      O         0.867750014019221    0.313845720248734    0.811056385492434  0.0000
  Si     Si        0.469619380120067    0.264941864685042    0.149905825125024  0.0000
  Si     Si        0.781598496671224    0.911149834477577    0.164848031789265  0.0000
  Si     Si        0.143284782465512    0.275980150608577    0.302832960970509  0.0000
  Si     Si        0.275732587987613    0.407974390189811    0.706311381658082  0.0000
  Si     Si        0.810331154118431    0.672487107283594    0.074741841231779  0.0000
  O      O         0.562496308932150    0.228417019214240    0.153668848745981  0.0000
  O      O         0.469513968277041    0.349896870749339    0.110153074578065  0.0000
  O      O         0.433162025232845    0.281705045072067    0.220455523178279  0.0000
  O      O         0.414635624926152    0.196488782262451    0.113272093348302  0.0000
  O      O         0.732064969717147    0.881853351696848    0.227916042914877  0.0000
  O      O         0.730871707382605    0.881752438665838    0.102411432452123  0.0000
  O      O         0.787648340172606    0.010075738142930    0.161867128366333  0.0000
  O      O         0.187244638324581    0.365285356687753    0.311056387927239  0.0000
  Si     Si        0.236148481553898    0.967154731146668    0.649905825180146  0.0000
  Si     Si        0.589940506558317    0.279133844468657    0.664848028331960  0.0000
  Si     Si        0.225110193710129    0.640820131920447    0.802832966231727  0.0000
  Si     Si        0.093115971546129    0.773267934366093    0.206311381238135  0.0000
  Si     Si        0.828603234621053    0.307866503221699    0.574741842742944  0.0000
  O      O         0.272673323730715    0.060031661304572    0.653668849133423  0.0000
  O      O         0.151193471407022    0.967049319439495    0.610153080449612  0.0000
  O      O         0.219385309950330    0.930697370496592    0.720455522520937  0.0000
  O      O         0.304601561942556    0.912170980044014    0.613272087771527  0.0000
  O      O         0.619236989368503    0.229600316204733    0.727916038858834  0.0000
  O      O         0.619337901978942    0.228407055041961    0.602411428745906  0.0000
  O      O         0.491014603138460    0.285183689736057    0.661867124901665  0.0000
  O      O         0.135804988518923    0.684779987971115    0.811056396447221  0.0000
  Si     Si        0.033935628651173    0.764941865131950    0.351780574504666  0.0000
  Si     Si        0.721956514601986    0.411149833468424    0.336838367920629  0.0000
  Si     Si        0.360270227411791    0.775980151074729    0.198853441876761  0.0000
  Si     Si        0.227822412453150    0.907974386789108    0.795375019507342  0.0000
  Si     Si        0.693223853917584    0.172487106026036    0.426944559643009  0.0000
  O      O         0.941058700042931    0.728417018630270    0.348017550572304  0.0000
  O      O         0.034041040290365    0.849896869190005    0.391533327748029  0.0000
  O      O         0.070392981853592    0.781705049841078    0.281230876489057  0.0000
  O      O         0.088919385184069    0.696488781724119    0.388414303447631  0.0000
  O      O         0.771490041795414    0.381853352176047    0.273770356526765  0.0000
  O      O         0.772683303156283    0.381752437434971    0.399274967349604  0.0000
  O      O         0.715906670881203    0.510075737117265    0.339819271990515  0.0000
  O      O         0.316310372582607    0.865285357617073    0.190630015606690  0.0000
  Si     Si        0.736148480621584    0.531470974084037    0.851780572766170  0.0000
  Si     Si        0.089940508711521    0.219491864544230    0.836838369847542  0.0000
  Si     Si        0.725110193519061    0.857805575904643    0.698853440614789  0.0000
  Si     Si        0.593115973009176    0.725357751543850    0.295375021109150  0.0000
  Si     Si        0.328603238747753    0.190759201405507    0.926944557821802  0.0000
  O      O         0.772673326092487    0.438594045333015    0.848017547451396  0.0000
  O      O         0.651193476095637    0.531576384500186    0.891533325127740  0.0000
  O      O         0.719385296154960    0.567928329356871    0.781230875445367  0.0000
  O      O         0.804601564325086    0.586454729587315    0.888414302937380  0.0000
  O      O         0.119236987665813    0.269025396320732    0.773770359636210  0.0000
  O      O         0.119337906895473    0.270218649955105    0.899274970586447  0.0000
  O      O         0.991014604987618    0.213442019801764    0.839819274743569  0.0000
  O      O         0.635804987078889    0.813845720971467    0.690630012617443  0.0000
  Si     Si        0.969619382298922    0.233683824977885    0.351780573779517  0.0000
  Si     Si        0.281598497157598    0.587475850714953    0.336838372777573  0.0000
  Si     Si        0.643284780535187    0.222645536166757    0.198853436431772  0.0000
  Si     Si        0.775732591720951    0.090651319199484    0.795375020755780  0.0000
  Si     Si        0.310331157373273    0.826138581986142    0.426944556717563  0.0000
  O      O         0.062496311390871    0.270208670195305    0.348017549296829  0.0000
  O      O         0.969513973407038    0.148728815617847    0.391533319722170  0.0000
  O      O         0.933162023322524    0.216920649602989    0.281230876415217  0.0000
  O      O         0.914635628954867    0.302136904510366    0.388414309882245  0.0000
  O      O         0.232064969987888    0.616772333039616    0.273770361582284  0.0000
  O      O         0.230871708605292    0.616873247704032    0.399274972360609  0.0000
  O      O         0.287648340071190    0.488549946916853    0.339819276557038  0.0000
  O      O         0.687244636007744    0.133340330360312    0.190630006953827  0.0000
  Si     Si        0.267406519502816    0.467154730626229    0.851780576843000  0.0000
  Si     Si        0.913614492740957    0.779133845006125    0.836838371052100  0.0000
  Si     Si        0.278444801059554    0.140820134384425    0.698853435588712  0.0000
  Si     Si        0.410439038066972    0.273267933584616    0.295375019143925  0.0000
  Si     Si        0.674951765540651    0.807866500727654    0.926944559562913  0.0000
  O      O         0.230881675729035    0.560031660150312    0.848017553770847  0.0000
  O      O         0.352361528874554    0.467049318613941    0.891533322966199  0.0000
  O      O         0.284169692354355    0.430697374333320    0.781230878448372  0.0000
  O      O         0.198953439386697    0.412170976528996    0.888414312130505  0.0000
  O      O         0.884318010174717    0.729600317028223    0.773770360245912  0.0000
  O      O         0.884217097747060    0.728407055019870    0.899274970432251  0.0000
  O      O         0.012540396291977    0.785183690825862    0.839819274138762  0.0000
  O      O         0.367750000000001    0.184780000000046    0.690630000000056  0.0000
