data_ReferenceDataBase/8317769_111
_audit_creation_method             Generated by GULP
_audit_author_name                 Salvador R. G. Balestra
_symmetry_space_group_name_H-M     'P 1             '
_symmetry_Int_Tables_number        1

loop_
_symmetry_equiv_pos_site_id
_symmetry_equiv_pos_as_xyz
   1     +x,+y,+z                
_cell_length_a                       16.1239
_cell_length_b                       16.1239
_cell_length_c                       20.6773
_cell_angle_alpha                   90.0000
_cell_angle_beta                    90.0000
_cell_angle_gamma                   90.0000

loop_
_atom_site_label
_atom_site_type_symbol
_atom_site_fract_x
_atom_site_fract_y
_atom_site_fract_z
_atom_site_charge
  Si     Si        0.469619400000056    0.264941900000053    0.851780599999984  0.0000
  Si     Si        0.781598499999973    0.911149900000055    0.836838400000033  0.0000
  Si     Si        0.143284799999947    0.275980200000049    0.698853399999962  0.0000
  Si     Si        0.275732599999969    0.407974399999944    0.295375000000035  0.0000
  Si     Si        0.810331199999951    0.672487100000012    0.926944599999956  0.0000
  O      O         0.562496300000021    0.228417000000036    0.848017600000048  0.0000
  O      O         0.469514000000004    0.349896899999976    0.891533299999992  0.0000
  O      O         0.433162000000038    0.281705099999954    0.781230899999969  0.0000
  O      O         0.414635599999997    0.196488799999997    0.888414300000022  0.0000
  O      O         0.732065000000034    0.881853299999989    0.773770300000024  0.0000
  O      O         0.730871699999966    0.881752399999982    0.899274900000023  0.0000
  O      O         0.787648300000001    0.010075700000016    0.839819300000045  0.0000
  O      O         0.187244599999985    0.365285399999948    0.690630000000056  0.0000
  Si     Si        0.932434100000023    0.068656199999964    0.574909599999955  0.0000
  O      O         0.873737000000006    0.871272399999953    0.836923800000022  0.0000
  O      O         0.204988800000024    0.202524199999971    0.678319999999985  0.0000
  O      O         0.348384399999986    0.345919800000047    0.314689799999996  0.0000
  O      O         0.722459800000024    0.719995100000006    0.918836599999963  0.0000
  O      O         0.909279800000036    0.091810600000031    0.500843199999963  0.0000
  O      O         0.001777500000003    0.999312899999950    0.577383000000054  0.0000
  O      O         0.831478299999958    0.653815200000054    0.000843199999963  0.0000
  Si     Si        0.236148500000013    0.967154700000037    0.351780599999984  0.0000
  Si     Si        0.589940500000012    0.279133799999954    0.336838400000033  0.0000
  Si     Si        0.225110200000017    0.640820100000042    0.198853399999962  0.0000
  Si     Si        0.093116000000009    0.773267899999951    0.795375000000035  0.0000
  Si     Si        0.828603300000054    0.307866500000046    0.426944599999956  0.0000
  O      O         0.272673299999951    0.060031600000002    0.348017499999969  0.0000
  O      O         0.151193499999977    0.967049299999985    0.391533299999992  0.0000
  O      O         0.219385299999999    0.930697399999985    0.281230899999969  0.0000
  O      O         0.304601599999955    0.912170899999978    0.388414300000022  0.0000
  O      O         0.619236999999998    0.229600300000016    0.273770399999989  0.0000
  O      O         0.619337900000005    0.228406999999947    0.399274999999989  0.0000
  O      O         0.491014599999971    0.285183699999948    0.339819300000045  0.0000
  O      O         0.135805000000005    0.684780000000046    0.190630000000056  0.0000
  Si     Si        0.432434100000023    0.429969499999970    0.074909599999955  0.0000
  O      O         0.629818000000000    0.371272399999953    0.336923800000022  0.0000
  O      O         0.298566199999982    0.702524100000005    0.178319999999985  0.0000
  O      O         0.155170600000019    0.845919800000047    0.814689899999962  0.0000
  O      O         0.781095199999982    0.219995199999971    0.418836599999963  0.0000
  O      O         0.409279800000036    0.406815100000017    0.000843199999963  0.0000
  O      O         0.501777500000003    0.499312799999984    0.077383000000054  0.0000
  O      O         0.847275200000013    0.329013600000053    0.500843199999963  0.0000
  Si     Si        0.533935599999950    0.733683799999994    0.851780599999984  0.0000
  Si     Si        0.221956500000033    0.087475899999959    0.836838400000033  0.0000
  Si     Si        0.860270199999945    0.722645499999999    0.698853399999962  0.0000
  Si     Si        0.727822400000036    0.590651299999990    0.295375000000035  0.0000
  Si     Si        0.193223800000055    0.326138600000036    0.926944599999956  0.0000
  O      O         0.441058699999985    0.770208700000012    0.848017600000048  0.0000
  O      O         0.534041000000002    0.648728799999958    0.891533299999992  0.0000
  O      O         0.570392999999967    0.716920699999946    0.781230899999969  0.0000
  O      O         0.588919400000009    0.802136900000050    0.888414300000022  0.0000
  O      O         0.271489999999972    0.116772299999980    0.773770300000024  0.0000
  O      O         0.272683300000040    0.116873299999952    0.899274900000023  0.0000
  O      O         0.215906700000005    0.988549899999953    0.839819300000045  0.0000
  O      O         0.816310300000055    0.633340399999952    0.690630000000056  0.0000
  Si     Si        0.071120899999983    0.929969499999970    0.574909599999955  0.0000
  O      O         0.129818000000000    0.127353299999982    0.836923800000022  0.0000
  O      O         0.798566199999982    0.796101600000043    0.678319999999985  0.0000
  O      O         0.655170600000019    0.652705900000001    0.314689799999996  0.0000
  O      O         0.281095199999982    0.278630499999963    0.918836599999963  0.0000
  O      O         0.094275199999970    0.906815100000017    0.500843199999963  0.0000
  O      O         0.172076700000048    0.344810499999994    0.000843199999963  0.0000
  Si     Si        0.767406499999993    0.031471000000010    0.351780599999984  0.0000
  Si     Si        0.413614499999994    0.719491800000014    0.336838400000033  0.0000
  Si     Si        0.778444799999988    0.357805600000006    0.198853399999962  0.0000
  Si     Si        0.910438999999997    0.225357799999983    0.795375000000035  0.0000
  Si     Si        0.174951800000031    0.690759200000002    0.426944599999956  0.0000
  O      O         0.730881700000054    0.938593999999966    0.348017499999969  0.0000
  O      O         0.852361599999995    0.031576399999949    0.391533299999992  0.0000
  O      O         0.784169700000007    0.067928299999949    0.281230899999969  0.0000
  O      O         0.698953400000050    0.086454699999990    0.388414300000022  0.0000
  O      O         0.384318000000007    0.769025400000032    0.273770399999989  0.0000
  O      O         0.384217100000001    0.770218600000021    0.399274999999989  0.0000
  O      O         0.512540400000034    0.713441999999986    0.339819300000045  0.0000
  O      O         0.867750000000001    0.313845700000002    0.190630000000056  0.0000
  Si     Si        0.571120899999983    0.568656199999964    0.074909599999955  0.0000
  O      O         0.373737000000006    0.627353299999982    0.336923800000022  0.0000
  O      O         0.704988800000024    0.296101499999963    0.178319999999985  0.0000
  O      O         0.848384399999986    0.152705999999966    0.814689899999962  0.0000
  O      O         0.222459800000024    0.778630600000042    0.418836599999963  0.0000
  O      O         0.594275199999970    0.591810600000031    0.000843199999963  0.0000
  O      O         0.156279799999993    0.669612099999995    0.500843199999963  0.0000
  Si     Si        0.969619400000056    0.233683799999994    0.649905800000056  0.0000
  Si     Si        0.281598499999973    0.587475899999959    0.664848000000006  0.0000
  Si     Si        0.643284799999947    0.222645599999964    0.802832999999964  0.0000
  Si     Si        0.775732599999969    0.090651299999990    0.206311400000004  0.0000
  Si     Si        0.310331199999951    0.826138600000036    0.574741799999970  0.0000
  O      O         0.062496300000021    0.270208700000012    0.653668899999957  0.0000
  O      O         0.969514000000004    0.148728799999958    0.610153100000048  0.0000
  O      O         0.933162000000038    0.216920599999980    0.720455499999957  0.0000
  O      O         0.914635599999997    0.302136900000050    0.613272100000017  0.0000
  O      O         0.232065000000034    0.616772399999945    0.727916100000016  0.0000
  O      O         0.230871699999966    0.616873299999952    0.602411400000051  0.0000
  O      O         0.287648300000001    0.488550000000032    0.661867099999995  0.0000
  O      O         0.687244699999951    0.133340299999986    0.811056399999984  0.0000
  Si     Si        0.432434100000023    0.429969499999970    0.926776799999971  0.0000
  O      O         0.373737000000006    0.627353299999982    0.664762600000017  0.0000
  O      O         0.704988800000024    0.296101499999963    0.823366400000054  0.0000
  O      O         0.848384399999986    0.152705900000001    0.186996499999964  0.0000
  O      O         0.222459800000024    0.778630600000042    0.582849799999963  0.0000
  O      O         0.501777500000003    0.499312799999984    0.924303399999985  0.0000
  O      O         0.331478299999958    0.844810499999994    0.500843199999963  0.0000
  Si     Si        0.267406499999993    0.467154700000037    0.149905800000056  0.0000
  Si     Si        0.913614499999994    0.779133900000033    0.164848000000006  0.0000
  Si     Si        0.278444799999988    0.140820100000042    0.302832999999964  0.0000
  Si     Si        0.410438999999997    0.273268000000030    0.706311400000004  0.0000
  Si     Si        0.674951800000031    0.807866500000046    0.074741799999970  0.0000
  O      O         0.230881700000054    0.560031699999968    0.153668899999957  0.0000
  O      O         0.352361500000029    0.467049299999985    0.110153100000048  0.0000
  O      O         0.284169700000007    0.430697399999985    0.220455499999957  0.0000
  O      O         0.198953400000050    0.412170999999944    0.113272100000017  0.0000
  O      O         0.884318000000007    0.729600300000016    0.227916000000050  0.0000
  O      O         0.884217100000001    0.728406999999947    0.102411400000051  0.0000
  O      O         0.012540400000034    0.785183699999948    0.161867099999995  0.0000
  O      O         0.367750000000001    0.184780000000046    0.311056399999984  0.0000
  Si     Si        0.071120899999983    0.929969499999970    0.426776799999971  0.0000
  O      O         0.873737000000006    0.871272399999953    0.164762600000017  0.0000
  O      O         0.204988800000024    0.202524100000005    0.323366400000054  0.0000
  O      O         0.348384399999986    0.345919800000047    0.686996600000043  0.0000
  O      O         0.722459800000024    0.719995100000006    0.082849799999963  0.0000
  O      O         0.001777500000003    0.999312799999984    0.424303399999985  0.0000
  O      O         0.656279799999993    0.829013600000053    0.000843199999963  0.0000
  Si     Si        0.033935599999950    0.764941900000053    0.649905800000056  0.0000
  Si     Si        0.721956500000033    0.411149900000055    0.664848000000006  0.0000
  Si     Si        0.360270199999945    0.775980200000049    0.802832999999964  0.0000
  Si     Si        0.227822400000036    0.907974399999944    0.206311400000004  0.0000
  Si     Si        0.693223800000055    0.172487100000012    0.574741799999970  0.0000
  O      O         0.941058699999985    0.728417000000036    0.653668899999957  0.0000
  O      O         0.034041000000002    0.849896899999976    0.610153100000048  0.0000
  O      O         0.070392999999967    0.781704999999988    0.720455499999957  0.0000
  O      O         0.088919400000009    0.696488799999997    0.613272100000017  0.0000
  O      O         0.771489999999972    0.381853399999954    0.727916100000016  0.0000
  O      O         0.772683300000040    0.381752499999948    0.602411400000051  0.0000
  O      O         0.715906700000005    0.510075700000016    0.661867099999995  0.0000
  O      O         0.316310400000020    0.865285299999982    0.811056399999984  0.0000
  Si     Si        0.571120899999983    0.568656199999964    0.926776799999971  0.0000
  O      O         0.629818000000000    0.371272399999953    0.664762600000017  0.0000
  O      O         0.298566199999982    0.702524100000005    0.823366400000054  0.0000
  O      O         0.155170600000019    0.845919699999968    0.186996499999964  0.0000
  O      O         0.781095199999982    0.219995199999971    0.582849799999963  0.0000
  O      O         0.672076700000048    0.153815200000054    0.500843199999963  0.0000
  Si     Si        0.736148500000013    0.531471000000010    0.149905800000056  0.0000
  Si     Si        0.089940500000012    0.219491899999980    0.164848000000006  0.0000
  Si     Si        0.725110200000017    0.857805600000006    0.302832999999964  0.0000
  Si     Si        0.593116000000009    0.725357799999983    0.706311400000004  0.0000
  Si     Si        0.328603199999975    0.190759200000002    0.074741799999970  0.0000
  O      O         0.772673299999951    0.438593999999966    0.153668899999957  0.0000
  O      O         0.651193499999977    0.531576399999949    0.110153100000048  0.0000
  O      O         0.719385299999999    0.567928299999949    0.220455499999957  0.0000
  O      O         0.804601599999955    0.586454699999990    0.113272100000017  0.0000
  O      O         0.119236999999998    0.269025400000032    0.227916000000050  0.0000
  O      O         0.119337900000005    0.270218600000021    0.102411400000051  0.0000
  O      O         0.991014599999971    0.213441999999986    0.161867099999995  0.0000
  O      O         0.635805000000005    0.813845700000002    0.311056399999984  0.0000
  Si     Si        0.932434100000023    0.068656199999964    0.426776799999971  0.0000
  O      O         0.129818000000000    0.127353299999982    0.164762600000017  0.0000
  O      O         0.798566199999982    0.796101600000043    0.323366400000054  0.0000
  O      O         0.655170600000019    0.652705999999966    0.686996600000043  0.0000
  O      O         0.281095199999982    0.278630499999963    0.082849799999963  0.0000
  O      O         0.347275200000013    0.169612099999995    0.000843199999963  0.0000
  Si     Si        0.533935599999950    0.733683799999994    0.149905800000056  0.0000
  Si     Si        0.221956500000033    0.087475899999959    0.164848000000006  0.0000
  Si     Si        0.860270199999945    0.722645499999999    0.302832999999964  0.0000
  Si     Si        0.727822400000036    0.590651299999990    0.706311400000004  0.0000
  Si     Si        0.193223800000055    0.326138600000036    0.074741799999970  0.0000
  O      O         0.441058699999985    0.770208700000012    0.153668899999957  0.0000
  O      O         0.534041000000002    0.648728799999958    0.110153100000048  0.0000
  O      O         0.570392999999967    0.716920599999980    0.220455499999957  0.0000
  O      O         0.588919400000009    0.802136900000050    0.113272100000017  0.0000
  O      O         0.271489999999972    0.116772299999980    0.227916000000050  0.0000
  O      O         0.272683300000040    0.116873199999986    0.102411400000051  0.0000
  O      O         0.215906700000005    0.988549899999953    0.161867099999995  0.0000
  O      O         0.816310300000055    0.633340399999952    0.311056399999984  0.0000
  Si     Si        0.767406499999993    0.031471000000010    0.649905800000056  0.0000
  Si     Si        0.413614499999994    0.719491800000014    0.664848000000006  0.0000
  Si     Si        0.778444799999988    0.357805600000006    0.802832999999964  0.0000
  Si     Si        0.910438999999997    0.225357799999983    0.206311400000004  0.0000
  Si     Si        0.174951800000031    0.690759200000002    0.574741799999970  0.0000
  O      O         0.730881700000054    0.938593999999966    0.653668899999957  0.0000
  O      O         0.852361500000029    0.031576399999949    0.610153100000048  0.0000
  O      O         0.784169700000007    0.067928299999949    0.720455499999957  0.0000
  O      O         0.698953400000050    0.086454699999990    0.613272100000017  0.0000
  O      O         0.384318000000007    0.769025400000032    0.727916100000016  0.0000
  O      O         0.384217100000001    0.770218699999987    0.602411400000051  0.0000
  O      O         0.512540400000034    0.713441999999986    0.661867099999995  0.0000
  O      O         0.867750000000001    0.313845700000002    0.811056399999984  0.0000
  Si     Si        0.469619400000056    0.264941900000053    0.149905800000056  0.0000
  Si     Si        0.781598499999973    0.911149900000055    0.164848000000006  0.0000
  Si     Si        0.143284799999947    0.275980099999970    0.302832999999964  0.0000
  Si     Si        0.275732599999969    0.407974399999944    0.706311400000004  0.0000
  Si     Si        0.810331199999951    0.672487100000012    0.074741799999970  0.0000
  O      O         0.562496300000021    0.228417000000036    0.153668899999957  0.0000
  O      O         0.469514000000004    0.349896899999976    0.110153100000048  0.0000
  O      O         0.433162000000038    0.281705099999954    0.220455499999957  0.0000
  O      O         0.414635599999997    0.196488799999997    0.113272100000017  0.0000
  O      O         0.732065000000034    0.881853299999989    0.227916000000050  0.0000
  O      O         0.730871699999966    0.881752399999982    0.102411400000051  0.0000
  O      O         0.787648300000001    0.010075700000016    0.161867099999995  0.0000
  O      O         0.187244599999985    0.365285399999948    0.311056399999984  0.0000
  Si     Si        0.236148500000013    0.967154700000037    0.649905800000056  0.0000
  Si     Si        0.589940500000012    0.279133900000033    0.664848000000006  0.0000
  Si     Si        0.225110200000017    0.640820100000042    0.802832999999964  0.0000
  Si     Si        0.093116000000009    0.773267899999951    0.206311400000004  0.0000
  Si     Si        0.828603199999975    0.307866500000046    0.574741799999970  0.0000
  O      O         0.272673299999951    0.060031699999968    0.653668799999991  0.0000
  O      O         0.151193499999977    0.967049299999985    0.610153100000048  0.0000
  O      O         0.219385299999999    0.930697399999985    0.720455499999957  0.0000
  O      O         0.304601599999955    0.912170999999944    0.613272100000017  0.0000
  O      O         0.619236999999998    0.229600300000016    0.727916100000016  0.0000
  O      O         0.619337900000005    0.228407100000027    0.602411400000051  0.0000
  O      O         0.491014599999971    0.285183699999948    0.661867099999995  0.0000
  O      O         0.135805000000005    0.684780000000046    0.811056399999984  0.0000
  Si     Si        0.033935599999950    0.764941900000053    0.351780599999984  0.0000
  Si     Si        0.721956500000033    0.411149799999976    0.336838400000033  0.0000
  Si     Si        0.360270199999945    0.775980200000049    0.198853399999962  0.0000
  Si     Si        0.227822400000036    0.907974399999944    0.795375000000035  0.0000
  Si     Si        0.693223800000055    0.172487100000012    0.426944599999956  0.0000
  O      O         0.941058699999985    0.728417000000036    0.348017499999969  0.0000
  O      O         0.034041000000002    0.849896800000010    0.391533299999992  0.0000
  O      O         0.070392999999967    0.781704999999988    0.281230899999969  0.0000
  O      O         0.088919400000009    0.696488799999997    0.388414300000022  0.0000
  O      O         0.771489999999972    0.381853299999989    0.273770399999989  0.0000
  O      O         0.772683300000040    0.381752399999982    0.399274999999989  0.0000
  O      O         0.715906700000005    0.510075700000016    0.339819300000045  0.0000
  O      O         0.316310400000020    0.865285299999982    0.190630000000056  0.0000
  Si     Si        0.736148500000013    0.531471000000010    0.851780599999984  0.0000
  Si     Si        0.089940500000012    0.219491899999980    0.836838400000033  0.0000
  Si     Si        0.725110200000017    0.857805600000006    0.698853399999962  0.0000
  Si     Si        0.593116000000009    0.725357799999983    0.295375000000035  0.0000
  Si     Si        0.328603199999975    0.190759200000002    0.926944599999956  0.0000
  O      O         0.772673299999951    0.438593999999966    0.848017600000048  0.0000
  O      O         0.651193499999977    0.531576399999949    0.891533299999992  0.0000
  O      O         0.719385299999999    0.567928299999949    0.781230899999969  0.0000
  O      O         0.804601599999955    0.586454699999990    0.888414300000022  0.0000
  O      O         0.119236999999998    0.269025400000032    0.773770300000024  0.0000
  O      O         0.119337900000005    0.270218600000021    0.899274900000023  0.0000
  O      O         0.991014599999971    0.213441999999986    0.839819300000045  0.0000
  O      O         0.635805000000005    0.813845700000002    0.690630000000056  0.0000
  Si     Si        0.969619400000056    0.233683799999994    0.351780599999984  0.0000
  Si     Si        0.281598499999973    0.587475799999993    0.336838400000033  0.0000
  Si     Si        0.643284799999947    0.222645499999999    0.198853399999962  0.0000
  Si     Si        0.775732599999969    0.090651299999990    0.795375000000035  0.0000
  Si     Si        0.310331199999951    0.826138600000036    0.426944599999956  0.0000
  O      O         0.062496300000021    0.270208700000012    0.348017499999969  0.0000
  O      O         0.969514000000004    0.148728799999958    0.391533299999992  0.0000
  O      O         0.933162000000038    0.216920599999980    0.281230899999969  0.0000
  O      O         0.914635699999963    0.302136900000050    0.388414300000022  0.0000
  O      O         0.232065000000034    0.616772399999945    0.273770399999989  0.0000
  O      O         0.230871699999966    0.616873299999952    0.399274999999989  0.0000
  O      O         0.287648399999966    0.488549899999953    0.339819300000045  0.0000
  O      O         0.687244699999951    0.133340299999986    0.190630000000056  0.0000
  Si     Si        0.267406499999993    0.467154700000037    0.851780599999984  0.0000
  Si     Si        0.913614499999994    0.779133900000033    0.836838400000033  0.0000
  Si     Si        0.278444799999988    0.140820100000042    0.698853399999962  0.0000
  Si     Si        0.410438999999997    0.273267899999951    0.295375000000035  0.0000
  Si     Si        0.674951800000031    0.807866500000046    0.926944599999956  0.0000
  O      O         0.230881700000054    0.560031699999968    0.848017600000048  0.0000
  O      O         0.352361500000029    0.467049299999985    0.891533299999992  0.0000
  O      O         0.284169700000007    0.430697399999985    0.781230899999969  0.0000
  O      O         0.198953400000050    0.412170999999944    0.888414300000022  0.0000
  O      O         0.884318000000007    0.729600300000016    0.773770300000024  0.0000
  O      O         0.884217100000001    0.728406999999947    0.899274900000023  0.0000
  O      O         0.012540400000034    0.785183699999948    0.839819300000045  0.0000
  O      O         0.367750000000001    0.184780000000046    0.690630000000056  0.0000
