data_ReferenceDataBase/8323211_111
_audit_creation_method             Generated by GULP
_audit_author_name                 Salvador R. G. Balestra
_symmetry_space_group_name_H-M     'P 1             '
_symmetry_Int_Tables_number        1

loop_
_symmetry_equiv_pos_site_id
_symmetry_equiv_pos_as_xyz
   1     +x,+y,+z                
_cell_length_a                       18.1446
_cell_length_b                       18.1446
_cell_length_c                       20.1504
_cell_angle_alpha                   90.0000
_cell_angle_beta                    90.0000
_cell_angle_gamma                  120.0000

loop_
_atom_site_label
_atom_site_type_symbol
_atom_site_fract_x
_atom_site_fract_y
_atom_site_fract_z
_atom_site_charge
  Si     Si        0.069674999999961    0.625789599999962    0.179030600000033  0.0000
  Si     Si        0.526891099999943    0.770327299999963    0.376783599999953  0.0000
  Si     Si        0.620209199999977    0.075255500000026    0.830972900000006  0.0000
  Si     Si        0.940970600000014    0.562694500000021    0.444339799999966  0.0000
  Si     Si        0.240487400000006    0.483952499999987    0.975407399999995  0.0000
  Si     Si        0.448091399999953    0.069815199999994    0.444339799999966  0.0000
  O      O         0.144799199999966    0.720203500000025    0.161191899999949  0.0000
  O      O         0.099805199999992    0.556784399999970    0.163960599999996  0.0000
  O      O         0.042129300000056    0.622103499999980    0.255001799999945  0.0000
  O      O         0.987633200000005    0.602887099999975    0.134752800000001  0.0000
  O      O         0.572426599999972    0.865986600000042    0.348811700000056  0.0000
  O      O         0.530320599999982    0.772042199999987    0.455526500000019  0.0000
  O      O         0.431296599999996    0.722530099999972    0.348528500000043  0.0000
  O      O         0.574199399999998    0.293981499999973    0.448543800000039  0.0000
  O      O         0.597306600000024    0.993213699999956    0.875250800000003  0.0000
  O      O         0.860502200000042    0.577210000000036    0.447660000000042  0.0000
  O      O         0.911351299999978    0.462557400000037    0.449919900000054  0.0000
  O      O         0.002602700000011    0.612834199999952    0.505001799999945  0.0000
  O      O         0.144703100000015    0.439156300000036    0.947660000000042  0.0000
  Si     Si        0.669269399999962    0.341516500000012    0.476159100000018  0.0000
  Si     Si        0.669269399999962    0.341516500000012    0.876169399999981  0.0000
  O      O         0.669269399999962    0.341516500000012    0.555065900000045  0.0000
  Si     Si        0.384996200000046    0.457648999999947    0.179030600000033  0.0000
  Si     Si        0.240458500000045    0.770327299999963    0.376783599999953  0.0000
  Si     Si        0.935530399999948    0.558717300000012    0.830972900000006  0.0000
  Si     Si        0.448091399999953    0.392039700000055    0.444339799999966  0.0000
  Si     Si        0.526833399999987    0.770298499999967    0.975407399999995  0.0000
  Si     Si        0.940970600000014    0.392039700000055    0.444339799999966  0.0000
  O      O         0.290582299999983    0.438359300000002    0.161191899999949  0.0000
  O      O         0.454001500000004    0.556784399999970    0.163960599999996  0.0000
  O      O         0.388682300000028    0.433789400000023    0.255001799999945  0.0000
  O      O         0.407898799999998    0.398509800000056    0.134752800000001  0.0000
  O      O         0.144799199999966    0.720203500000025    0.348811700000056  0.0000
  O      O         0.238743699999986    0.772042199999987    0.455526500000019  0.0000
  O      O         0.288255800000002    0.722530099999972    0.348528500000043  0.0000
  O      O         0.716804300000035    0.293981499999973    0.448543800000039  0.0000
  O      O         0.017572100000052    0.617856500000016    0.875250800000003  0.0000
  O      O         0.433575799999971    0.297055799999953    0.447660000000042  0.0000
  O      O         0.548228399999971    0.462557400000037    0.449919900000054  0.0000
  O      O         0.397951700000021    0.403532100000007    0.505001799999945  0.0000
  O      O         0.571629499999972    0.719310500000006    0.947660000000042  0.0000
  Si     Si        0.553136799999947    0.941110800000047    0.179030600000033  0.0000
  Si     Si        0.240458500000045    0.483894699999951    0.376783599999953  0.0000
  Si     Si        0.452068499999996    0.390576600000031    0.830972900000006  0.0000
  Si     Si        0.618746099999953    0.069815199999994    0.444339799999966  0.0000
  Si     Si        0.240487400000006    0.770298499999967    0.975407399999995  0.0000
  Si     Si        0.618746099999953    0.562694400000055    0.444339799999966  0.0000
  O      O         0.572426599999972    0.865986600000042    0.161191899999949  0.0000
  O      O         0.454001500000004    0.910980600000016    0.163960599999996  0.0000
  O      O         0.576996399999985    0.968656499999952    0.255001799999945  0.0000
  O      O         0.612276100000031    0.023152600000003    0.134752800000001  0.0000
  O      O         0.290582299999983    0.438359300000002    0.348811700000056  0.0000
  O      O         0.238743699999986    0.480465200000026    0.455526500000019  0.0000
  O      O         0.288255800000002    0.579489299999977    0.348528500000043  0.0000
  O      O         0.716804300000035    0.436586400000010    0.448543800000039  0.0000
  O      O         0.392929299999992    0.413479199999983    0.875250800000003  0.0000
  O      O         0.713730000000055    0.150283599999966    0.447660000000042  0.0000
  O      O         0.548228399999971    0.099434599999995    0.449919900000054  0.0000
  O      O         0.607253700000001    0.008183099999997    0.505001799999945  0.0000
  O      O         0.291475399999968    0.866082699999993    0.947660000000042  0.0000
  Si     Si        0.384996200000046    0.941110800000047    0.330972900000006  0.0000
  Si     Si        0.240458500000045    0.483894699999951    0.133219899999972  0.0000
  Si     Si        0.935530399999948    0.390576600000031    0.679030600000033  0.0000
  Si     Si        0.448091399999953    0.069815199999994    0.065663800000038  0.0000
  Si     Si        0.526833399999987    0.770298499999967    0.534596200000010  0.0000
  Si     Si        0.940970600000014    0.562694500000021    0.065663800000038  0.0000
  O      O         0.290582299999983    0.865986600000042    0.348811700000056  0.0000
  O      O         0.454001500000004    0.910980600000016    0.346042900000043  0.0000
  O      O         0.388682300000028    0.968656499999952    0.255001799999945  0.0000
  O      O         0.407898799999998    0.023152600000003    0.375250800000003  0.0000
  O      O         0.144799199999966    0.438359300000002    0.161191899999949  0.0000
  O      O         0.238743699999986    0.480465200000026    0.054477099999986  0.0000
  O      O         0.288255800000002    0.579489299999977    0.161474999999996  0.0000
  O      O         0.716804300000035    0.436586400000010    0.061459700000000  0.0000
  O      O         0.017572100000052    0.413479199999983    0.634752800000001  0.0000
  O      O         0.433575799999971    0.150283599999966    0.062343599999963  0.0000
  O      O         0.548228399999971    0.099434599999995    0.060083599999984  0.0000
  O      O         0.397951700000021    0.008183099999997    0.005001799999945  0.0000
  O      O         0.571629499999972    0.866082699999993    0.562343499999997  0.0000
  Si     Si        0.669269399999962    0.341516500000012    0.033844499999987  0.0000
  Si     Si        0.669269399999962    0.341516500000012    0.633834200000024  0.0000
  O      O         0.669269399999962    0.341516500000012    0.954937599999994  0.0000
  Si     Si        0.069674999999961    0.457648999999947    0.330972900000006  0.0000
  Si     Si        0.526891099999943    0.770327400000042    0.133219899999972  0.0000
  Si     Si        0.620209199999977    0.558717300000012    0.679030600000033  0.0000
  Si     Si        0.940970600000014    0.392039700000055    0.065663800000038  0.0000
  Si     Si        0.240487400000006    0.770298499999967    0.534596200000010  0.0000
  Si     Si        0.448091399999953    0.392039700000055    0.065663800000038  0.0000
  O      O         0.144799199999966    0.438359300000002    0.348811700000056  0.0000
  O      O         0.099805199999992    0.556784399999970    0.346042900000043  0.0000
  O      O         0.042129300000056    0.433789400000023    0.255001799999945  0.0000
  O      O         0.987633200000005    0.398509800000056    0.375250800000003  0.0000
  O      O         0.572426599999972    0.720203500000025    0.161191899999949  0.0000
  O      O         0.530320599999982    0.772042199999987    0.054477099999986  0.0000
  O      O         0.431296599999996    0.722530099999972    0.161474999999996  0.0000
  O      O         0.574199399999998    0.293981499999973    0.061459700000000  0.0000
  O      O         0.597306600000024    0.617856500000016    0.634752800000001  0.0000
  O      O         0.860502200000042    0.297055799999953    0.062343599999963  0.0000
  O      O         0.911351299999978    0.462557400000037    0.060083599999984  0.0000
  O      O         0.002602700000011    0.403532100000007    0.005001799999945  0.0000
  O      O         0.144703100000015    0.719310500000006    0.562343499999997  0.0000
  Si     Si        0.553136799999947    0.625789599999962    0.330972900000006  0.0000
  Si     Si        0.240458500000045    0.770327400000042    0.133219899999972  0.0000
  Si     Si        0.452068499999996    0.075255500000026    0.679030600000033  0.0000
  Si     Si        0.618746099999953    0.562694500000021    0.065663800000038  0.0000
  Si     Si        0.240487400000006    0.483952499999987    0.534596200000010  0.0000
  Si     Si        0.618746099999953    0.069815199999994    0.065663800000038  0.0000
  O      O         0.572426599999972    0.720203500000025    0.348811700000056  0.0000
  O      O         0.454001500000004    0.556784399999970    0.346042900000043  0.0000
  O      O         0.576996399999985    0.622103499999980    0.255001799999945  0.0000
  O      O         0.612276100000031    0.602887099999975    0.375250800000003  0.0000
  O      O         0.290582299999983    0.865986600000042    0.161191899999949  0.0000
  O      O         0.238743699999986    0.772042199999987    0.054477099999986  0.0000
  O      O         0.288255800000002    0.722530099999972    0.161474999999996  0.0000
  O      O         0.716804300000035    0.293981499999973    0.061459700000000  0.0000
  O      O         0.392929299999992    0.993213699999956    0.634752800000001  0.0000
  O      O         0.713730000000055    0.577210000000036    0.062343599999963  0.0000
  O      O         0.548228399999971    0.462557400000037    0.060083599999984  0.0000
  O      O         0.607253700000001    0.612834199999952    0.005001799999945  0.0000
  O      O         0.291475399999968    0.439156300000036    0.562343499999997  0.0000
  Si     Si        0.935530399999948    0.390576600000031    0.830972900000006  0.0000
  Si     Si        0.478314299999965    0.246038900000030    0.633220000000051  0.0000
  Si     Si        0.384996200000046    0.941110800000047    0.179030600000033  0.0000
  Si     Si        0.064234800000008    0.453671800000052    0.565663800000038  0.0000
  Si     Si        0.764718000000016    0.532413799999972    0.034596200000010  0.0000
  Si     Si        0.557113999999956    0.946550999999999    0.565663800000038  0.0000
  O      O         0.860406200000057    0.296162800000047    0.848811700000056  0.0000
  O      O         0.905400200000031    0.459581899999989    0.846042900000043  0.0000
  O      O         0.963076099999967    0.394262799999979    0.755001799999945  0.0000
  O      O         0.017572100000052    0.413479199999983    0.875250800000003  0.0000
  O      O         0.432778800000051    0.150379700000030    0.661191799999983  0.0000
  O      O         0.474884699999961    0.244324200000051    0.554477000000020  0.0000
  O      O         0.573908800000027    0.293836199999987    0.661475099999961  0.0000
  O      O         0.431006000000025    0.722384799999986    0.561459700000000  0.0000
  O      O         0.407898799999998    0.023152600000003    0.134752800000001  0.0000
  O      O         0.144703100000015    0.439156300000036    0.562343499999997  0.0000
  O      O         0.093854100000044    0.553808900000035    0.560083599999984  0.0000
  O      O         0.002602700000011    0.403532100000007    0.505001799999945  0.0000
  O      O         0.860502200000042    0.577210000000036    0.062343599999963  0.0000
  Si     Si        0.335935999999947    0.674849799999947    0.533844499999987  0.0000
  Si     Si        0.335935999999947    0.674849799999947    0.133834200000024  0.0000
  O      O         0.335935999999947    0.674849799999947    0.454937599999994  0.0000
  Si     Si        0.620209199999977    0.558717300000012    0.830972900000006  0.0000
  Si     Si        0.764746899999977    0.246038900000030    0.633220000000051  0.0000
  Si     Si        0.069674999999961    0.457648999999947    0.179030600000033  0.0000
  Si     Si        0.557113999999956    0.624326600000018    0.565663800000038  0.0000
  Si     Si        0.478372000000036    0.246067799999992    0.034596200000010  0.0000
  Si     Si        0.064234800000008    0.624326600000018    0.565663800000038  0.0000
  O      O         0.714622999999960    0.578006999999957    0.848811700000056  0.0000
  O      O         0.551203900000019    0.459581899999989    0.846042900000043  0.0000
  O      O         0.616523000000029    0.582576900000049    0.755001799999945  0.0000
  O      O         0.597306600000024    0.617856500000016    0.875250800000003  0.0000
  O      O         0.860406200000057    0.296162800000047    0.661191799999983  0.0000
  O      O         0.766461700000036    0.244324200000051    0.554477000000020  0.0000
  O      O         0.716949600000021    0.293836199999987    0.661475099999961  0.0000
  O      O         0.288401000000022    0.722384799999986    0.561459700000000  0.0000
  O      O         0.987633200000005    0.398509800000056    0.134752800000001  0.0000
  O      O         0.571629499999972    0.719310500000006    0.562343499999997  0.0000
  O      O         0.456977000000052    0.553808900000035    0.560083599999984  0.0000
  O      O         0.607253700000001    0.612834199999952    0.505001799999945  0.0000
  O      O         0.433575799999971    0.297055799999953    0.062343599999963  0.0000
  Si     Si        0.452068499999996    0.075255500000026    0.830972900000006  0.0000
  Si     Si        0.764746899999977    0.532471600000008    0.633220000000051  0.0000
  Si     Si        0.553136799999947    0.625789599999962    0.179030600000033  0.0000
  Si     Si        0.386459299999956    0.946550999999999    0.565663800000038  0.0000
  Si     Si        0.764718000000016    0.246067799999992    0.034596200000010  0.0000
  Si     Si        0.386459299999956    0.453671800000052    0.565663800000038  0.0000
  O      O         0.432778800000051    0.150379700000030    0.848811700000056  0.0000
  O      O         0.551203900000019    0.105385599999977    0.846042900000043  0.0000
  O      O         0.428209000000038    0.047709800000007    0.755001799999945  0.0000
  O      O         0.392929299999992    0.993213699999956    0.875250800000003  0.0000
  O      O         0.714622999999960    0.578006999999957    0.661191799999983  0.0000
  O      O         0.766461700000036    0.535901100000046    0.554477000000020  0.0000
  O      O         0.716949600000021    0.436876999999981    0.661475099999961  0.0000
  O      O         0.288401000000022    0.579779899999949    0.561459700000000  0.0000
  O      O         0.612276100000031    0.602887099999975    0.134752800000001  0.0000
  O      O         0.291475399999968    0.866082699999993    0.562343499999997  0.0000
  O      O         0.456977000000052    0.916931699999964    0.560083599999984  0.0000
  O      O         0.397951700000021    0.008183099999997    0.505001799999945  0.0000
  O      O         0.713730000000055    0.150283599999966    0.062343599999963  0.0000
  Si     Si        0.620209199999977    0.075255500000026    0.679030600000033  0.0000
  Si     Si        0.764746899999977    0.532471600000008    0.876783599999953  0.0000
  Si     Si        0.069674999999961    0.625789599999962    0.330972900000006  0.0000
  Si     Si        0.557113999999956    0.946550999999999    0.944339799999966  0.0000
  Si     Si        0.478372000000036    0.246067799999992    0.475407399999995  0.0000
  Si     Si        0.064234800000008    0.453671800000052    0.944339799999966  0.0000
  O      O         0.714622999999960    0.150379700000030    0.661191799999983  0.0000
  O      O         0.551203900000019    0.105385599999977    0.663960599999996  0.0000
  O      O         0.616523000000029    0.047709800000007    0.755001799999945  0.0000
  O      O         0.597306600000024    0.993213699999956    0.634752800000001  0.0000
  O      O         0.860406200000057    0.578006999999957    0.848811700000056  0.0000
  O      O         0.766461700000036    0.535901100000046    0.955526500000019  0.0000
  O      O         0.716949600000021    0.436876999999981    0.848528500000043  0.0000
  O      O         0.288401000000022    0.579779899999949    0.948543800000039  0.0000
  O      O         0.987633200000005    0.602887099999975    0.375250800000003  0.0000
  O      O         0.571629499999972    0.866082699999993    0.947660000000042  0.0000
  O      O         0.456977000000052    0.916931699999964    0.949919900000054  0.0000
  O      O         0.607253700000001    0.008183099999997    0.005001799999945  0.0000
  O      O         0.433575799999971    0.150283599999966    0.447660000000042  0.0000
  Si     Si        0.335935999999947    0.674849799999947    0.976159100000018  0.0000
  Si     Si        0.335935999999947    0.674849799999947    0.376169399999981  0.0000
  O      O         0.335935999999947    0.674849799999947    0.055065900000045  0.0000
  Si     Si        0.935530399999948    0.558717300000012    0.679030600000033  0.0000
  Si     Si        0.478314299999965    0.246038900000030    0.876783599999953  0.0000
  Si     Si        0.384996200000046    0.457648999999947    0.330972900000006  0.0000
  Si     Si        0.064234800000008    0.624326600000018    0.944339799999966  0.0000
  Si     Si        0.764718000000016    0.246067799999992    0.475407399999995  0.0000
  Si     Si        0.557113999999956    0.624326600000018    0.944339799999966  0.0000
  O      O         0.860406200000057    0.578006999999957    0.661191799999983  0.0000
  O      O         0.905400200000031    0.459581899999989    0.663960599999996  0.0000
  O      O         0.963076099999967    0.582576900000049    0.755001799999945  0.0000
  O      O         0.017572100000052    0.617856500000016    0.634752800000001  0.0000
  O      O         0.432778800000051    0.296162800000047    0.848811700000056  0.0000
  O      O         0.474884699999961    0.244324200000051    0.955526500000019  0.0000
  O      O         0.573908800000027    0.293836199999987    0.848528500000043  0.0000
  O      O         0.431006000000025    0.722384799999986    0.948543800000039  0.0000
  O      O         0.407898799999998    0.398509800000056    0.375250800000003  0.0000
  O      O         0.144703100000015    0.719310500000006    0.947660000000042  0.0000
  O      O         0.093854100000044    0.553808900000035    0.949919900000054  0.0000
  O      O         0.002602700000011    0.612834199999952    0.005001799999945  0.0000
  O      O         0.860502200000042    0.297055799999953    0.447660000000042  0.0000
  Si     Si        0.452068499999996    0.390576600000031    0.679030600000033  0.0000
  Si     Si        0.764746899999977    0.246038900000030    0.876783599999953  0.0000
  Si     Si        0.553136799999947    0.941110800000047    0.330972900000006  0.0000
  Si     Si        0.386459299999956    0.453671800000052    0.944339799999966  0.0000
  Si     Si        0.764718000000016    0.532413799999972    0.475407399999995  0.0000
  Si     Si        0.386459299999956    0.946550999999999    0.944339799999966  0.0000
  O      O         0.432778800000051    0.296162800000047    0.661191799999983  0.0000
  O      O         0.551203900000019    0.459581899999989    0.663960599999996  0.0000
  O      O         0.428209000000038    0.394262799999979    0.755001799999945  0.0000
  O      O         0.392929299999992    0.413479199999983    0.634752800000001  0.0000
  O      O         0.714622999999960    0.150379700000030    0.848811700000056  0.0000
  O      O         0.766461700000036    0.244324200000051    0.955526500000019  0.0000
  O      O         0.716949600000021    0.293836199999987    0.848528500000043  0.0000
  O      O         0.288401000000022    0.722384799999986    0.948543800000039  0.0000
  O      O         0.612276100000031    0.023152600000003    0.375250800000003  0.0000
  O      O         0.291475399999968    0.439156300000036    0.947660000000042  0.0000
  O      O         0.456977000000052    0.553808900000035    0.949919900000054  0.0000
  O      O         0.397951700000021    0.403532100000007    0.005001799999945  0.0000
  O      O         0.713730000000055    0.577210000000036    0.447660000000042  0.0000
