data_ReferenceDataBase/8323183_111
_audit_creation_method             Generated by GULP
_audit_author_name                 Salvador R. G. Balestra
_symmetry_space_group_name_H-M     'P 1             '
_symmetry_Int_Tables_number        1

loop_
_symmetry_equiv_pos_site_id
_symmetry_equiv_pos_as_xyz
   1     +x,+y,+z                
_cell_length_a                       16.3297
_cell_length_b                       16.3297
_cell_length_c                       18.7187
_cell_angle_alpha                   90.0000
_cell_angle_beta                    90.0000
_cell_angle_gamma                  120.0000

loop_
_atom_site_label
_atom_site_type_symbol
_atom_site_fract_x
_atom_site_fract_y
_atom_site_fract_z
_atom_site_charge
  Si     Si        0.473664600000006    0.332064800000012    0.752340900000036  0.0000
  Si     Si        0.669129200000043    0.141147299999943    0.752340900000036  0.0000
  Si     Si        0.860046699999998    0.527529400000049    0.752340900000036  0.0000
  Si     Si        0.669129200000043    0.527529400000049    0.752340900000036  0.0000
  Si     Si        0.860046699999998    0.332064800000012    0.752340900000036  0.0000
  Si     Si        0.473664600000006    0.141147299999943    0.752340900000036  0.0000
  Si     Si        0.528229099999976    0.668429599999968    0.252340900000036  0.0000
  Si     Si        0.332764399999974    0.859346999999957    0.252340900000036  0.0000
  Si     Si        0.141846999999984    0.472964899999965    0.252340900000036  0.0000
  Si     Si        0.332764399999974    0.472964899999965    0.252340900000036  0.0000
  Si     Si        0.141846999999984    0.668429599999968    0.252340900000036  0.0000
  Si     Si        0.528229099999976    0.859346999999957    0.252340900000036  0.0000
  Si     Si        0.669790300000045    0.144123400000012    0.463520600000038  0.0000
  Si     Si        0.857070600000043    0.525214399999982    0.463520600000038  0.0000
  Si     Si        0.475979599999960    0.331403700000010    0.463520600000038  0.0000
  Si     Si        0.857070600000043    0.331403700000010    0.041161099999954  0.0000
  Si     Si        0.475979599999960    0.144123400000012    0.041161099999954  0.0000
  Si     Si        0.669790300000045    0.525214399999982    0.041161099999954  0.0000
  Si     Si        0.332103400000051    0.856370999999967    0.541161099999954  0.0000
  Si     Si        0.144822999999974    0.475279900000032    0.541161099999954  0.0000
  Si     Si        0.525914100000023    0.669090600000004    0.541161099999954  0.0000
  Si     Si        0.144822999999974    0.669090600000004    0.963520600000038  0.0000
  Si     Si        0.525914100000023    0.856370999999967    0.963520600000038  0.0000
  Si     Si        0.332103400000051    0.475279900000032    0.963520600000038  0.0000
  Si     Si        0.621897099999956    0.572936799999979    0.896445100000051  0.0000
  Si     Si        0.428257099999996    0.048507800000039    0.896445100000051  0.0000
  Si     Si        0.952686299999982    0.379296899999986    0.896445100000051  0.0000
  Si     Si        0.428257099999996    0.379296899999986    0.608236600000055  0.0000
  Si     Si        0.952686299999982    0.572936799999979    0.608236600000055  0.0000
  Si     Si        0.621897099999956    0.048507800000039    0.608236600000055  0.0000
  Si     Si        0.379996499999947    0.427557500000034    0.108236600000055  0.0000
  Si     Si        0.573636500000021    0.951986600000055    0.108236600000055  0.0000
  Si     Si        0.049207400000000    0.621197499999994    0.108236600000055  0.0000
  Si     Si        0.573636500000021    0.621197499999994    0.396445100000051  0.0000
  Si     Si        0.049207400000000    0.427557500000034    0.396445100000051  0.0000
  Si     Si        0.379996600000027    0.951986600000055    0.396445100000051  0.0000
  Si     Si        0.573636500000021    0.951986600000055    0.396445100000051  0.0000
  Si     Si        0.049207400000000    0.621197499999994    0.396445100000051  0.0000
  Si     Si        0.379996600000027    0.427557500000034    0.396445100000051  0.0000
  Si     Si        0.049207400000000    0.427557500000034    0.108236600000055  0.0000
  Si     Si        0.379996600000027    0.951986600000055    0.108236600000055  0.0000
  Si     Si        0.573636500000021    0.621197499999994    0.108236600000055  0.0000
  Si     Si        0.428257099999996    0.048507800000039    0.608236600000055  0.0000
  Si     Si        0.952686299999982    0.379296899999986    0.608236600000055  0.0000
  Si     Si        0.621897099999956    0.572936799999979    0.608236600000055  0.0000
  Si     Si        0.952686299999982    0.572936799999979    0.896445100000051  0.0000
  Si     Si        0.621897099999956    0.048507800000039    0.896445100000051  0.0000
  Si     Si        0.428257099999996    0.379296899999986    0.896445100000051  0.0000
  Si     Si        0.857070600000043    0.525214399999982    0.041161099999954  0.0000
  Si     Si        0.475979599999960    0.331403700000010    0.041161099999954  0.0000
  Si     Si        0.669790300000045    0.144123400000012    0.041161099999954  0.0000
  Si     Si        0.475979599999960    0.144123400000012    0.463520600000038  0.0000
  Si     Si        0.669790300000045    0.525214399999982    0.463520600000038  0.0000
  Si     Si        0.857070600000043    0.331403700000010    0.463520600000038  0.0000
  Si     Si        0.144822999999974    0.475279900000032    0.963520600000038  0.0000
  Si     Si        0.525914100000023    0.669090600000004    0.963520600000038  0.0000
  Si     Si        0.332103400000051    0.856370999999967    0.963520600000038  0.0000
  Si     Si        0.525914100000023    0.856370999999967    0.541161099999954  0.0000
  Si     Si        0.332103400000051    0.475279900000032    0.541161099999954  0.0000
  Si     Si        0.144822999999974    0.669090600000004    0.541161099999954  0.0000
  O      O         0.573218799999950    0.427975199999992    0.752340900000036  0.0000
  O      O         0.573218799999950    0.144791199999986    0.752340900000036  0.0000
  O      O         0.856402799999955    0.427975199999992    0.752340900000036  0.0000
  O      O         0.428674799999953    0.572519199999988    0.252340900000036  0.0000
  O      O         0.428674799999953    0.855703199999994    0.252340900000036  0.0000
  O      O         0.145490799999948    0.572519199999988    0.252340900000036  0.0000
  O      O         0.495880499999998    0.247713999999974    0.752340900000036  0.0000
  O      O         0.753479999999968    0.247713999999974    0.752340900000036  0.0000
  O      O         0.753479999999968    0.505313500000057    0.752340900000036  0.0000
  O      O         0.506013199999984    0.752780300000040    0.252340900000036  0.0000
  O      O         0.248413700000015    0.752780300000040    0.252340900000036  0.0000
  O      O         0.248413700000015    0.495180799999957    0.252340900000036  0.0000
  O      O         0.411309299999971    0.324516300000028    0.682975100000021  0.0000
  O      O         0.676677700000027    0.086340500000006    0.682975100000021  0.0000
  O      O         0.914853500000049    0.589884699999971    0.682975100000021  0.0000
  O      O         0.676677700000027    0.589884699999971    0.821706700000050  0.0000
  O      O         0.914853500000049    0.324516300000028    0.821706700000050  0.0000
  O      O         0.411309299999971    0.086340500000006    0.821706700000050  0.0000
  O      O         0.590584300000046    0.675977999999986    0.321706700000050  0.0000
  O      O         0.325215999999955    0.914153800000008    0.321706700000050  0.0000
  O      O         0.087040200000047    0.410609600000043    0.321706700000050  0.0000
  O      O         0.325215999999955    0.410609600000043    0.182975100000021  0.0000
  O      O         0.087040200000047    0.675977999999986    0.182975100000021  0.0000
  O      O         0.590584300000046    0.914153800000008    0.182975100000021  0.0000
  O      O         0.411309299999971    0.324516300000028    0.821706700000050  0.0000
  O      O         0.676677700000027    0.086340500000006    0.821706700000050  0.0000
  O      O         0.914853500000049    0.589884699999971    0.821706700000050  0.0000
  O      O         0.676677700000027    0.589884699999971    0.682975100000021  0.0000
  O      O         0.914853500000049    0.324516300000028    0.682975100000021  0.0000
  O      O         0.411309299999971    0.086340500000006    0.682975100000021  0.0000
  O      O         0.590584300000046    0.675977999999986    0.182975100000021  0.0000
  O      O         0.325215999999955    0.914153800000008    0.182975100000021  0.0000
  O      O         0.087040200000047    0.410609600000043    0.182975100000021  0.0000
  O      O         0.325215999999955    0.410609600000043    0.321706700000050  0.0000
  O      O         0.087040200000047    0.675977999999986    0.321706700000050  0.0000
  O      O         0.590584300000046    0.914153800000008    0.321706700000050  0.0000
  O      O         0.683633999999984    0.116917500000000    0.543841700000030  0.0000
  O      O         0.884276500000055    0.566264000000047    0.543841700000030  0.0000
  O      O         0.434930000000008    0.317559999999958    0.543841700000030  0.0000
  O      O         0.884276399999976    0.317559999999958    0.960839999999962  0.0000
  O      O         0.434930000000008    0.116917500000000    0.960839999999962  0.0000
  O      O         0.683633999999984    0.566264000000047    0.960839999999962  0.0000
  O      O         0.318259699999999    0.883576800000014    0.460839999999962  0.0000
  O      O         0.117617200000041    0.434230400000047    0.460839999999962  0.0000
  O      O         0.566963600000008    0.682934300000056    0.460839999999962  0.0000
  O      O         0.117617200000041    0.682934300000056    0.043841700000030  0.0000
  O      O         0.566963600000008    0.883576800000014    0.043841700000030  0.0000
  O      O         0.318259699999999    0.434230299999967    0.043841700000030  0.0000
  O      O         0.581724699999995    0.161802899999998    0.459422700000005  0.0000
  O      O         0.839391099999943    0.419469299999946    0.459422700000005  0.0000
  O      O         0.581724699999995    0.419469299999946    0.459422700000005  0.0000
  O      O         0.839391099999943    0.419469299999946    0.045258999999987  0.0000
  O      O         0.581724699999995    0.161802899999998    0.045258999999987  0.0000
  O      O         0.581724699999995    0.419469299999946    0.045258900000022  0.0000
  O      O         0.420168900000021    0.838691400000016    0.545258900000022  0.0000
  O      O         0.162502600000039    0.581025100000033    0.545258900000022  0.0000
  O      O         0.420168900000021    0.581025100000033    0.545258900000022  0.0000
  O      O         0.162502600000039    0.581025100000033    0.959422799999970  0.0000
  O      O         0.420168900000021    0.838691400000016    0.959422799999970  0.0000
  O      O         0.420168900000021    0.581025100000033    0.959422799999970  0.0000
  O      O         0.762936399999944    0.238257599999997    0.438787000000048  0.0000
  O      O         0.762936399999944    0.524226399999975    0.438787000000048  0.0000
  O      O         0.476967599999966    0.238257599999997    0.438787000000048  0.0000
  O      O         0.762936399999944    0.238257599999997    0.065894699999944  0.0000
  O      O         0.476967700000046    0.238257599999997    0.065894699999944  0.0000
  O      O         0.762936399999944    0.524226399999975    0.065894699999944  0.0000
  O      O         0.238957199999959    0.762236799999982    0.565894699999944  0.0000
  O      O         0.238957199999959    0.476268000000005    0.565894699999944  0.0000
  O      O         0.524926000000050    0.762236799999982    0.565894699999944  0.0000
  O      O         0.238957199999959    0.762236799999982    0.938787000000048  0.0000
  O      O         0.524926000000050    0.762236799999982    0.938787000000048  0.0000
  O      O         0.238957199999959    0.476268000000005    0.938787000000048  0.0000
  O      O         0.655844699999989    0.059779100000014    0.410575099999960  0.0000
  O      O         0.941414799999961    0.595613100000037    0.410575099999960  0.0000
  O      O         0.405580900000018    0.345349299999953    0.410575099999960  0.0000
  O      O         0.941414799999961    0.345349299999953    0.094106600000032  0.0000
  O      O         0.405580900000018    0.059779100000014    0.094106600000032  0.0000
  O      O         0.655844699999989    0.595613100000037    0.094106600000032  0.0000
  O      O         0.346048900000028    0.940715200000000    0.594106600000032  0.0000
  O      O         0.060478800000055    0.404881199999977    0.594106600000032  0.0000
  O      O         0.596312799999964    0.655145100000027    0.594106600000032  0.0000
  O      O         0.060478800000055    0.655145100000027    0.910575200000039  0.0000
  O      O         0.596312799999964    0.940715200000000    0.910575200000039  0.0000
  O      O         0.346048900000028    0.404881199999977    0.910575099999960  0.0000
  O      O         0.525453500000026    0.475740500000029    0.893794500000013  0.0000
  O      O         0.525453500000026    0.049260499999946    0.893794500000013  0.0000
  O      O         0.951933499999996    0.475740500000029    0.893794500000013  0.0000
  O      O         0.525453500000026    0.475740500000029    0.610887199999979  0.0000
  O      O         0.951933499999996    0.475740500000029    0.610887199999979  0.0000
  O      O         0.525453500000026    0.049260499999946    0.610887199999979  0.0000
  O      O         0.476440199999956    0.524753799999985    0.110887199999979  0.0000
  O      O         0.476440199999956    0.951233900000034    0.110887199999979  0.0000
  O      O         0.049960100000021    0.524753799999985    0.110887199999979  0.0000
  O      O         0.476440199999956    0.524753799999985    0.393794500000013  0.0000
  O      O         0.049960100000021    0.524753799999985    0.393794500000013  0.0000
  O      O         0.476440199999956    0.951233900000034    0.393794500000013  0.0000
  O      O         0.596312799999964    0.655145100000027    0.910575099999960  0.0000
  O      O         0.346048900000028    0.940715200000000    0.910575200000039  0.0000
  O      O         0.060478800000055    0.404881199999977    0.910575200000039  0.0000
  O      O         0.346048900000028    0.404881199999977    0.594106600000032  0.0000
  O      O         0.060478800000055    0.655145100000027    0.594106600000032  0.0000
  O      O         0.596312799999964    0.940715200000000    0.594106600000032  0.0000
  O      O         0.405580900000018    0.345349299999953    0.094106600000032  0.0000
  O      O         0.655844699999989    0.059779100000014    0.094106600000032  0.0000
  O      O         0.941414799999961    0.595613100000037    0.094106600000032  0.0000
  O      O         0.655844699999989    0.595613100000037    0.410575099999960  0.0000
  O      O         0.941414799999961    0.345349299999953    0.410575099999960  0.0000
  O      O         0.405580900000018    0.059779100000014    0.410575099999960  0.0000
  O      O         0.566963600000008    0.883576800000014    0.460839999999962  0.0000
  O      O         0.117617200000041    0.682934300000056    0.460839999999962  0.0000
  O      O         0.318259699999999    0.434230400000047    0.460839999999962  0.0000
  O      O         0.117617200000041    0.434230400000047    0.043841700000030  0.0000
  O      O         0.318259699999999    0.883576800000014    0.043841700000030  0.0000
  O      O         0.566963699999974    0.682934300000056    0.043841700000030  0.0000
  O      O         0.434930000000008    0.116917500000000    0.543841700000030  0.0000
  O      O         0.884276500000055    0.317559999999958    0.543841700000030  0.0000
  O      O         0.683633999999984    0.566264000000047    0.543841700000030  0.0000
  O      O         0.884276399999976    0.566264000000047    0.960839999999962  0.0000
  O      O         0.683633999999984    0.116917500000000    0.960839999999962  0.0000
  O      O         0.434930000000008    0.317559999999958    0.960839999999962  0.0000
