data_ReferenceDataBase/8323183_111
_audit_creation_method             Generated by GULP
_audit_author_name                 Salvador R. G. Balestra
_symmetry_space_group_name_H-M     'P 1             '
_symmetry_Int_Tables_number        1

loop_
_symmetry_equiv_pos_site_id
_symmetry_equiv_pos_as_xyz
   1     +x,+y,+z                
_cell_length_a                       16.3297
_cell_length_b                       16.3297
_cell_length_c                       18.7187
_cell_angle_alpha                   90.0000
_cell_angle_beta                    90.0000
_cell_angle_gamma                  120.0000

loop_
_atom_site_label
_atom_site_type_symbol
_atom_site_fract_x
_atom_site_fract_y
_atom_site_fract_z
_atom_site_charge
  Si     Si        0.473664570147221    0.332064784734137    0.752340845237184  0.0000
  Si     Si        0.669129209954240    0.141147291567698    0.752340845286469  0.0000
  Si     Si        0.860046702473794    0.527529423883483    0.752340845203047  0.0000
  Si     Si        0.669129209454564    0.527529423818455    0.752340845194319  0.0000
  Si     Si        0.860046703004556    0.332064784502805    0.752340845385794  0.0000
  Si     Si        0.473664570367602    0.141147291784138    0.752340845115396  0.0000
  Si     Si        0.528229084878670    0.668429549073575    0.252340845238800  0.0000
  Si     Si        0.332764445123735    0.859347042312526    0.252340845223664  0.0000
  Si     Si        0.141846952528423    0.472964910077034    0.252340845505972  0.0000
  Si     Si        0.332764445487885    0.472964910092721    0.252340845276562  0.0000
  Si     Si        0.141846951990981    0.668429549443954    0.252340845303010  0.0000
  Si     Si        0.528229084697990    0.859347042050561    0.252340845392368  0.0000
  Si     Si        0.669790273938177    0.144123360079408    0.463520626638461  0.0000
  Si     Si        0.857070634409124    0.525214420208811    0.463520626661194  0.0000
  Si     Si        0.475979574112499    0.331403720504200    0.463520626573200  0.0000
  Si     Si        0.857070634673436    0.331403720284212    0.041161063997253  0.0000
  Si     Si        0.475979574754379    0.144123360251160    0.041161063734436  0.0000
  Si     Si        0.669790273918437    0.525214420261104    0.041161063117101  0.0000
  Si     Si        0.332103381209849    0.856370973797106    0.541161063900649  0.0000
  Si     Si        0.144823020785186    0.475279913718656    0.541161064061698  0.0000
  Si     Si        0.525914081004050    0.669090613307930    0.541161063819657  0.0000
  Si     Si        0.144823020122648    0.669090613704203    0.963520626790912  0.0000
  Si     Si        0.525914080274789    0.856370973631752    0.963520626694609  0.0000
  Si     Si        0.332103380884311    0.475279913653814    0.963520627166459  0.0000
  Si     Si        0.621897101843370    0.572936850927959    0.896445099520133  0.0000
  Si     Si        0.428257143527583    0.048507756633885    0.896445099204870  0.0000
  Si     Si        0.952686238053388    0.379296893207082    0.896445099524367  0.0000
  Si     Si        0.428257143483307    0.379296892798696    0.608236590986903  0.0000
  Si     Si        0.952686237648061    0.572936850902626    0.608236591110575  0.0000
  Si     Si        0.621897101463191    0.048507756687488    0.608236591097569  0.0000
  Si     Si        0.379996553025641    0.427557482916645    0.108236590963360  0.0000
  Si     Si        0.573636511463322    0.951986577140973    0.108236591260920  0.0000
  Si     Si        0.049207416757329    0.621197440756764    0.108236591220175  0.0000
  Si     Si        0.573636511639288    0.621197440969294    0.396445099440337  0.0000
  Si     Si        0.049207417492185    0.427557483027219    0.396445099609628  0.0000
  Si     Si        0.379996553641884    0.951986577111255    0.396445099441263  0.0000
  Si     Si        0.573636511611817    0.951986577155499    0.396445099508774  0.0000
  Si     Si        0.049207417377158    0.621197440942213    0.396445099552724  0.0000
  Si     Si        0.379996553486514    0.427557482991243    0.396445099419850  0.0000
  Si     Si        0.049207417441518    0.427557483152621    0.108236591385633  0.0000
  Si     Si        0.379996553865074    0.951986577601805    0.108236591147519  0.0000
  Si     Si        0.573636511672146    0.621197441450043    0.108236590836802  0.0000
  Si     Si        0.428257143557357    0.048507756758352    0.608236590982358  0.0000
  Si     Si        0.952686237816279    0.379296892998167    0.608236591183181  0.0000
  Si     Si        0.621897101574031    0.572936850805866    0.608236591005579  0.0000
  Si     Si        0.952686237448601    0.572936850816473    0.896445099348512  0.0000
  Si     Si        0.621897101217627    0.048507756350772    0.896445099383572  0.0000
  Si     Si        0.428257142922581    0.379296892532444    0.896445099528734  0.0000
  Si     Si        0.857070634008945    0.525214419558087    0.041161063834863  0.0000
  Si     Si        0.475979573669054    0.331403720274871    0.041161063334925  0.0000
  Si     Si        0.669790274128221    0.144123359835953    0.041161063924769  0.0000
  Si     Si        0.475979574250503    0.144123360082856    0.463520626496764  0.0000
  Si     Si        0.669790273888483    0.525214420145415    0.463520626617679  0.0000
  Si     Si        0.857070634531984    0.331403720559747    0.463520626767569  0.0000
  Si     Si        0.144823020740884    0.475279914347289    0.963520626947505  0.0000
  Si     Si        0.525914081169464    0.669090613639356    0.963520627194365  0.0000
  Si     Si        0.332103380874754    0.856370973994905    0.963520626616515  0.0000
  Si     Si        0.525914080889160    0.856370973763052    0.541161063987201  0.0000
  Si     Si        0.332103381225595    0.475279913622481    0.541161063822696  0.0000
  Si     Si        0.144823020643743    0.669090613331542    0.541161063990307  0.0000
  O      O         0.573218819201375    0.427975174892024    0.752340844571395  0.0000
  O      O         0.573218820281287    0.144791152186054    0.752340845348904  0.0000
  O      O         0.856402842771492    0.427975174352811    0.752340845409592  0.0000
  O      O         0.428674835815632    0.572519158915516    0.252340845899535  0.0000
  O      O         0.428674834758934    0.855703181604979    0.252340845158918  0.0000
  O      O         0.145490812135383    0.572519159553172    0.252340845311474  0.0000
  O      O         0.495880491717006    0.247713998991722    0.752340845408693  0.0000
  O      O         0.753479995866300    0.247713998678965    0.752340845476167  0.0000
  O      O         0.753479995132756    0.505313502122843    0.752340845284343  0.0000
  O      O         0.506013163346521    0.752780334842368    0.252340845235648  0.0000
  O      O         0.248413659143167    0.752780335217944    0.252340844950905  0.0000
  O      O         0.248413659889907    0.495180831904703    0.252340845379133  0.0000
  O      O         0.411309306946739    0.324516307362955    0.682975046919369  0.0000
  O      O         0.676677686937509    0.086340505677095    0.682975047020649  0.0000
  O      O         0.914853488550082    0.589884687099957    0.682975046995734  0.0000
  O      O         0.676677686647184    0.589884686898454    0.821706643440982  0.0000
  O      O         0.914853489238402    0.324516307685351    0.821706643633644  0.0000
  O      O         0.411309307050393    0.086340505407611    0.821706643200255  0.0000
  O      O         0.590584348199208    0.675978026368124    0.321706643489135  0.0000
  O      O         0.325215968163328    0.914153828132829    0.321706643529099  0.0000
  O      O         0.087040166579664    0.410609646832947    0.321706643713885  0.0000
  O      O         0.325215968027060    0.410609647114346    0.182975046945095  0.0000
  O      O         0.087040165501050    0.675978026182245    0.182975047159569  0.0000
  O      O         0.590584347928507    0.914153828304052    0.182975047241698  0.0000
  O      O         0.411309307031473    0.324516307616897    0.821706643483508  0.0000
  O      O         0.676677686688313    0.086340505188610    0.821706643475401  0.0000
  O      O         0.914853488458021    0.589884687135553    0.821706643372930  0.0000
  O      O         0.676677686961489    0.589884687190831    0.682975046941005  0.0000
  O      O         0.914853488915431    0.324516307516535    0.682975047119734  0.0000
  O      O         0.411309307308590    0.086340505789397    0.682975046866897  0.0000
  O      O         0.590584347895955    0.675978026254869    0.182975046940048  0.0000
  O      O         0.325215968428469    0.914153828812764    0.182975047080361  0.0000
  O      O         0.087040166426676    0.410609646816927    0.182975047351682  0.0000
  O      O         0.325215968083528    0.410609646619737    0.321706643485015  0.0000
  O      O         0.087040166351958    0.675978026540886    0.321706643672519  0.0000
  O      O         0.590584347832738    0.914153828163053    0.321706643588582  0.0000
  O      O         0.683633989426840    0.116917514699462    0.543841693240319  0.0000
  O      O         0.884276480008913    0.566263981505223    0.543841693113691  0.0000
  O      O         0.434930013041001    0.317560004689346    0.543841693090726  0.0000
  O      O         0.884276479242154    0.317560005488373    0.960839997077537  0.0000
  O      O         0.434930017035308    0.116917516960907    0.960839996303068  0.0000
  O      O         0.683633994338017    0.566263992964189    0.960839999538969  0.0000
  O      O         0.318259665664373    0.883576819072198    0.460839997287207  0.0000
  O      O         0.117617175153268    0.434230352483890    0.460839997597926  0.0000
  O      O         0.566963642151069    0.682934329150102    0.460839997315994  0.0000
  O      O         0.117617175512126    0.682934328650449    0.043841693682212  0.0000
  O      O         0.566963637918615    0.883576816829681    0.043841694139189  0.0000
  O      O         0.318259660692411    0.434230340484851    0.043841690659398  0.0000
  O      O         0.581724712171295    0.161802936225361    0.459422742414038  0.0000
  O      O         0.839391058293738    0.419469282285795    0.459422742979195  0.0000
  O      O         0.581724712111788    0.419469282203295    0.459422742692261  0.0000
  O      O         0.839391058650910    0.419469282030479    0.045258949060915  0.0000
  O      O         0.581724712138953    0.161802935404115    0.045258950074598  0.0000
  O      O         0.581724713196718    0.419469280807617    0.045258938674332  0.0000
  O      O         0.420168942988160    0.838691397654796    0.545258948072899  0.0000
  O      O         0.162502596956335    0.581025051651360    0.545258947828503  0.0000
  O      O         0.420168943034684    0.581025051559399    0.545258947674746  0.0000
  O      O         0.162502595887023    0.581025051801044    0.959422741858619  0.0000
  O      O         0.420168942846078    0.838691398415639    0.959422740400624  0.0000
  O      O         0.420168941701550    0.581025053038040    0.959422751463314  0.0000
  O      O         0.762936417761111    0.238257576845160    0.438786990823301  0.0000
  O      O         0.762936417586992    0.524226347044341    0.438786990713642  0.0000
  O      O         0.476967647145623    0.238257576793913    0.438786990598865  0.0000
  O      O         0.762936418130508    0.238257576290290    0.065894699888988  0.0000
  O      O         0.476967647940034    0.238257577174207    0.065894699206823  0.0000
  O      O         0.762936416915580    0.524226346016354    0.065894699368304  0.0000
  O      O         0.238957237435721    0.762236757099497    0.565894699853040  0.0000
  O      O         0.238957237627702    0.476267986789324    0.565894699869240  0.0000
  O      O         0.524926007928870    0.762236756981484    0.565894699808471  0.0000
  O      O         0.238957236772555    0.762236757505347    0.938786990804759  0.0000
  O      O         0.524926007150915    0.762236756807747    0.938786991038257  0.0000
  O      O         0.238957237872389    0.476267988161638    0.938786991274661  0.0000
  O      O         0.655844748438781    0.059779134142831    0.410575126071132  0.0000
  O      O         0.941414860233395    0.595613120325027    0.410575125832634  0.0000
  O      O         0.405580873872778    0.345349246272338    0.410575125891252  0.0000
  O      O         0.941414861098542    0.345349245381296    0.094106563979457  0.0000
  O      O         0.405580871867429    0.059779133645434    0.094106562919610  0.0000
  O      O         0.655844742840339    0.595613111793525    0.094106569682799  0.0000
  O      O         0.346048906728144    0.940715199785933    0.594106564401759  0.0000
  O      O         0.060478794966965    0.404881213626678    0.594106564911890  0.0000
  O      O         0.596312781239538    0.655145087552293    0.594106564517783  0.0000
  O      O         0.060478793740502    0.655145088682908    0.910575126777657  0.0000
  O      O         0.596312783207188    0.940715200308022    0.910575127604377  0.0000
  O      O         0.346048911673848    0.404881222255395    0.910575120151592  0.0000
  O      O         0.525453494856173    0.475740499316103    0.893794507053552  0.0000
  O      O         0.525453485601583    0.049260482899705    0.893794501082039  0.0000
  O      O         0.951933509367633    0.475740507803694    0.893794501783529  0.0000
  O      O         0.525453487780211    0.475740506542817    0.610887187764052  0.0000
  O      O         0.951933506814237    0.475740506476121    0.610887188041054  0.0000
  O      O         0.525453487634614    0.049260486950401    0.610887188202017  0.0000
  O      O         0.476440159811480    0.524753834719809    0.110887183424005  0.0000
  O      O         0.476440169450006    0.951233850976781    0.110887189451375  0.0000
  O      O         0.049960145691401    0.524753826263709    0.110887188814758  0.0000
  O      O         0.476440167284361    0.524753827266184    0.393794502713951  0.0000
  O      O         0.049960148300262    0.524753827435624    0.393794502615102  0.0000
  O      O         0.476440167491805    0.951233846892814    0.393794502337800  0.0000
  O      O         0.596312772656571    0.655145082409426    0.910575120655245  0.0000
  O      O         0.346048905071950    0.940715200808263    0.910575127437734  0.0000
  O      O         0.060478794649195    0.404881212552737    0.910575126984843  0.0000
  O      O         0.346048906843595    0.404881213273584    0.594106564473641  0.0000
  O      O         0.060478794803962    0.655145087526306    0.594106564802108  0.0000
  O      O         0.596312781306371    0.940715199722751    0.594106564603350  0.0000
  O      O         0.405580882664889    0.345349251613023    0.094106570440338  0.0000
  O      O         0.655844749924035    0.059779132970686    0.094106563029041  0.0000
  O      O         0.941414860101320    0.595613121271107    0.094106563835656  0.0000
  O      O         0.655844748264260    0.595613120464728    0.410575125936931  0.0000
  O      O         0.941414860370364    0.345349246372146    0.410575125947321  0.0000
  O      O         0.405580873794759    0.059779134068464    0.410575125951447  0.0000
  O      O         0.566963641693600    0.883576819175097    0.460839997401180  0.0000
  O      O         0.117617175029454    0.682934329074100    0.460839997520269  0.0000
  O      O         0.318259665358824    0.434230352537964    0.460839997310887  0.0000
  O      O         0.117617176656814    0.434230354954167    0.043841693942514  0.0000
  O      O         0.318259666737250    0.883576817643771    0.043841693961452  0.0000
  O      O         0.566963653907506    0.682934334005417    0.043841690770318  0.0000
  O      O         0.434930013533696    0.116917514769124    0.543841693098258  0.0000
  O      O         0.884276480157675    0.317560004772221    0.543841693235880  0.0000
  O      O         0.683633989675186    0.566263981200665    0.543841693131355  0.0000
  O      O         0.884276478210652    0.566263978845900    0.960839996816260  0.0000
  O      O         0.683633988342551    0.116917516311689    0.960839996575111  0.0000
  O      O         0.434930000000008    0.317559999999958    0.960839999999962  0.0000
