data_ReferenceDataBase/8323211_111
_audit_creation_method             Generated by GULP
_audit_author_name                 Salvador R. G. Balestra
_symmetry_space_group_name_H-M     'P 1             '
_symmetry_Int_Tables_number        1

loop_
_symmetry_equiv_pos_site_id
_symmetry_equiv_pos_as_xyz
   1     +x,+y,+z                
_cell_length_a                       18.1446
_cell_length_b                       18.1446
_cell_length_c                       20.1504
_cell_angle_alpha                   90.0000
_cell_angle_beta                    90.0000
_cell_angle_gamma                  120.0000

loop_
_atom_site_label
_atom_site_type_symbol
_atom_site_fract_x
_atom_site_fract_y
_atom_site_fract_z
_atom_site_charge
  Si     Si        0.069675036159627    0.625789656935599    0.179030625855138  0.0000
  Si     Si        0.526891112709664    0.770327359033008    0.376783622811289  0.0000
  Si     Si        0.620209197759684    0.075255495274887    0.830972935550782  0.0000
  Si     Si        0.940970589946259    0.562694460277934    0.444339799356890  0.0000
  Si     Si        0.240487359856297    0.483952490252169    0.975407354957337  0.0000
  Si     Si        0.448091373069041    0.069815242656772    0.444339800493870  0.0000
  O      O         0.144799195161446    0.720203518525953    0.161191849590212  0.0000
  O      O         0.099805172128965    0.556784389653328    0.163960624426245  0.0000
  O      O         0.042129329997947    0.622103504402204    0.255001780651668  0.0000
  O      O         0.987633245747527    0.602887070305289    0.134752746693869  0.0000
  O      O         0.572426551694656    0.865986639645490    0.348811711791331  0.0000
  O      O         0.530320667432425    0.772042138053073    0.455526496072487  0.0000
  O      O         0.431296552139428    0.722530078451358    0.348528513254472  0.0000
  O      O         0.574199410423823    0.293981507418964    0.448543854883535  0.0000
  O      O         0.597306610924636    0.993213704660936    0.875250814528181  0.0000
  O      O         0.860502229461702    0.577210001854633    0.447660001199691  0.0000
  O      O         0.911351280523287    0.462557442525255    0.449919936242986  0.0000
  O      O         0.002602687083004    0.612834179595774    0.505001780253748  0.0000
  O      O         0.144703146733757    0.439156292435606    0.947660000733668  0.0000
  Si     Si        0.669269353579723    0.341516478143890    0.476159101201284  0.0000
  Si     Si        0.669269355539682    0.341516481513044    0.876169395049680  0.0000
  O      O         0.669269353646604    0.341516478118208    0.555065911445257  0.0000
  Si     Si        0.384996179282891    0.457648985881944    0.179030625378927  0.0000
  Si     Si        0.240458475021080    0.770327359216547    0.376783622790849  0.0000
  Si     Si        0.935530340985327    0.558717309394052    0.830972935202816  0.0000
  Si     Si        0.448091371672954    0.392039733345276    0.444339799335375  0.0000
  Si     Si        0.526833347425459    0.770298477315325    0.975407355309467  0.0000
  Si     Si        0.940970589802101    0.392039734090994    0.444339799164040  0.0000
  O      O         0.290582317984980    0.438359283390325    0.161191848078000  0.0000
  O      O         0.454001446618895    0.556784389230206    0.163960624163191  0.0000
  O      O         0.388682330798265    0.433789431509290    0.255001780111997  0.0000
  O      O         0.407898766773408    0.398509782321794    0.134752746771528  0.0000
  O      O         0.144799193556186    0.720203516941766    0.348811713445268  0.0000
  O      O         0.238743699068908    0.772042137892370    0.455526496054528  0.0000
  O      O         0.288255754632964    0.722530078298694    0.348528513171357  0.0000
  O      O         0.716804324042301    0.293981505496048    0.448543854838115  0.0000
  O      O         0.017572132459400    0.617856513435273    0.875250813326241  0.0000
  O      O         0.433575830313473    0.297055831253515    0.447660000687443  0.0000
  O      O         0.548228389331102    0.462557441694143    0.449919936387596  0.0000
  O      O         0.397951652113652    0.403532110658868    0.505001780381209  0.0000
  O      O         0.571629545228542    0.719310461996885    0.947660000994843  0.0000
  Si     Si        0.553136850363771    0.941110800308074    0.179030625873545  0.0000
  Si     Si        0.240458474649701    0.483894720434094    0.376783622485215  0.0000
  Si     Si        0.452068526891144    0.390576638634251    0.830972935727539  0.0000
  Si     Si        0.618746098954296    0.069815242300703    0.444339800581460  0.0000
  Si     Si        0.240487359558529    0.770298477205331    0.975407355192781  0.0000
  Si     Si        0.618746098252817    0.562694459293778    0.444339799372756  0.0000
  O      O         0.572426553239594    0.865986641785364    0.161191848465469  0.0000
  O      O         0.454001447146665    0.910980664444870    0.163960624278221  0.0000
  O      O         0.576996403634223    0.968656505416092    0.255001780900968  0.0000
  O      O         0.612276054412806    0.023152591622489    0.134752747653514  0.0000
  O      O         0.290582316467887    0.438359281642468    0.348811711512228  0.0000
  O      O         0.238743698375070    0.480465165334730    0.455526495739430  0.0000
  O      O         0.288255754763626    0.579489281033837    0.348528512963314  0.0000
  O      O         0.716804326121974    0.436586421159364    0.448543854749180  0.0000
  O      O         0.392929323243073    0.413479226419196    0.875250813955381  0.0000
  O      O         0.713730001293903    0.150283602172622    0.447660003276511  0.0000
  O      O         0.548228390882886    0.099434552093822    0.449919937425226  0.0000
  O      O         0.607253720209559    0.008183144240118    0.505001781008851  0.0000
  O      O         0.291475375334531    0.866082690980969    0.947660002266610  0.0000
  Si     Si        0.384996178867236    0.941110798890096    0.330972935609938  0.0000
  Si     Si        0.240458475893397    0.483894722563111    0.133219938373773  0.0000
  Si     Si        0.935530340358903    0.390576637508411    0.679030625934025  0.0000
  Si     Si        0.448091374720077    0.069815245463590    0.065663762211319  0.0000
  Si     Si        0.526833345294031    0.770298474655812    0.534596206234820  0.0000
  Si     Si        0.940970592069839    0.562694463051637    0.065663761060573  0.0000
  O      O         0.290582317304244    0.865986639938128    0.348811711982902  0.0000
  O      O         0.454001446154987    0.910980662866059    0.346042936895999  0.0000
  O      O         0.388682331199300    0.968656505157652    0.255001780881149  0.0000
  O      O         0.407898765888089    0.023152589452393    0.375250814720067  0.0000
  O      O         0.144799194960174    0.438359283795764    0.161191848708455  0.0000
  O      O         0.238743698088507    0.480465168128174    0.054477065107686  0.0000
  O      O         0.288255756480291    0.579489283093004    0.161475048040133  0.0000
  O      O         0.716804327497890    0.436586424919068    0.061459706455774  0.0000
  O      O         0.017572130807334    0.413479224131547    0.634752746828095  0.0000
  O      O         0.433575833061667    0.150283605909041    0.062343560726846  0.0000
  O      O         0.548228392477863    0.099434554915218    0.060083625339260  0.0000
  O      O         0.397951655472299    0.008183148380384    0.005001781267961  0.0000
  O      O         0.571629542943470    0.866082687335694    0.562343561421115  0.0000
  Si     Si        0.669269355839987    0.341516481802881    0.033844460074481  0.0000
  Si     Si        0.669269354117174    0.341516479118988    0.633834166221629  0.0000
  O      O         0.669269355801641    0.341516481874961    0.954937649829883  0.0000
  Si     Si        0.069675035057231    0.457648985075766    0.330972935431616  0.0000
  Si     Si        0.526891114324511    0.770327360525470    0.133219938748521  0.0000
  Si     Si        0.620209196675309    0.558717307881048    0.679030625668109  0.0000
  Si     Si        0.940970591974681    0.392039736828936    0.065663761158710  0.0000
  Si     Si        0.240487358510858    0.770298475163502    0.534596206217564  0.0000
  Si     Si        0.448091374443643    0.392039736472935    0.065663761236685  0.0000
  O      O         0.144799193328193    0.438359281911407    0.348811712942559  0.0000
  O      O         0.099805170975904    0.556784388304723    0.346042937047634  0.0000
  O      O         0.042129330138796    0.433789432040890    0.255001780367312  0.0000
  O      O         0.987633243698057    0.398509780977964    0.375250813549118  0.0000
  O      O         0.572426552716410    0.720203518139610    0.161191849427718  0.0000
  O      O         0.530320669317309    0.772042137124648    0.054477065498124  0.0000
  O      O         0.431296553749951    0.722530080638296    0.161475048288105  0.0000
  O      O         0.574199412760602    0.293981510348637    0.061459706486298  0.0000
  O      O         0.597306608918211    0.617856511222819    0.634752746956761  0.0000
  O      O         0.860502231694632    0.297055834700569    0.062343559155968  0.0000
  O      O         0.911351282695738    0.462557445290350    0.060083624111892  0.0000
  O      O         0.002602689508686    0.403532114802199    0.005001780533275  0.0000
  O      O         0.144703144774973    0.719310459398549    0.562343559127092  0.0000
  Si     Si        0.553136848578513    0.625789655008233    0.330972935729882  0.0000
  Si     Si        0.240458475794534    0.770327360499123    0.133219938632715  0.0000
  Si     Si        0.452068526279795    0.075255493866985    0.679030625892762  0.0000
  Si     Si        0.618746100480162    0.562694462735438    0.065663761570111  0.0000
  Si     Si        0.240487357977832    0.483952487133255    0.534596205939418  0.0000
  Si     Si        0.618746100804684    0.069815245492150    0.065663762111668  0.0000
  O      O         0.572426551405614    0.720203516247858    0.348811713596160  0.0000
  O      O         0.454001445274104    0.556784387539832    0.346042936961581  0.0000
  O      O         0.576996402770546    0.622103503904163    0.255001780893074  0.0000
  O      O         0.612276052068754    0.602887067143386    0.375250814047600  0.0000
  O      O         0.290582318441586    0.865986641872892    0.161191848092606  0.0000
  O      O         0.238743696942328    0.772042136644813    0.054477065374307  0.0000
  O      O         0.288255756370980    0.722530080485016    0.161475048139038  0.0000
  O      O         0.716804327454288    0.293981510283340    0.061459706389390  0.0000
  O      O         0.392929322054164    0.993213702433041    0.634752747860911  0.0000
  O      O         0.713730002662227    0.577210004535629    0.062343560110444  0.0000
  O      O         0.548228392183197    0.462557444964769    0.060083624484268  0.0000
  O      O         0.607253722825261    0.612834182183065    0.005001780631382  0.0000
  O      O         0.291475373364316    0.439156289452299    0.562343560340648  0.0000
  Si     Si        0.935530341145784    0.390576638871896    0.830972935558099  0.0000
  Si     Si        0.478314262013783    0.246038933592664    0.633219938784381  0.0000
  Si     Si        0.384996179753461    0.941110800265776    0.179030625855456  0.0000
  Si     Si        0.064234784051856    0.453671830985926    0.565663760984993  0.0000
  Si     Si        0.764718018093536    0.532413806713661    0.034596206060304  0.0000
  Si     Si        0.557114001534853    0.946551047990892    0.565663762474296  0.0000
  O      O         0.860406182533964    0.296162777544457    0.848811712994962  0.0000
  O      O         0.905400205171481    0.459581906211636    0.846042936869956  0.0000
  O      O         0.963076046780806    0.394262790546148    0.755001780718900  0.0000
  O      O         0.017572132320812    0.413479226313789    0.875250813966761  0.0000
  O      O         0.432778823294500    0.150379652263066    0.661191848339105  0.0000
  O      O         0.474884706904635    0.244324157353150    0.554477065535671  0.0000
  O      O         0.573908822616059    0.293836213531189    0.661475048300085  0.0000
  O      O         0.431005963411058    0.722384782842378    0.561459706430618  0.0000
  O      O         0.407898767355707    0.023152591814494    0.134752747819816  0.0000
  O      O         0.144703144205681    0.439156288894968    0.562343558948823  0.0000
  O      O         0.093854093612472    0.553808848784525    0.560083623847014  0.0000
  O      O         0.002602686498303    0.403532111412817    0.505001780311761  0.0000
  O      O         0.860502231662121    0.577210004803670    0.062343559465920  0.0000
  Si     Si        0.335936020296204    0.674849812007961    0.533844460075448  0.0000
  Si     Si        0.335936022226446    0.674849814760727    0.133834166229587  0.0000
  O      O         0.335936020159654    0.674849812026248    0.454937649832655  0.0000
  Si     Si        0.620209197510857    0.558717309198115    0.830972935370220  0.0000
  Si     Si        0.764746900860998    0.246038933784781    0.633219938808494  0.0000
  Si     Si        0.069675036103605    0.457648986314132    0.179030625658045  0.0000
  Si     Si        0.557114001806104    0.624326556922314    0.565663761074195  0.0000
  Si     Si        0.478372030895848    0.246067818912000    0.034596206218930  0.0000
  Si     Si        0.064234784416105    0.624326557313693    0.565663760985197  0.0000
  O      O         0.714623059065230    0.578007012090854    0.848811712118575  0.0000
  O      O         0.551203930205875    0.459581905994495    0.846042937037668  0.0000
  O      O         0.616523045113482    0.582576862297000    0.755001780383799  0.0000
  O      O         0.597306610643163    0.617856513244923    0.875250813948880  0.0000
  O      O         0.860406181368311    0.296162775772751    0.661191850057942  0.0000
  O      O         0.766461680439653    0.244324158388492    0.554477065559675  0.0000
  O      O         0.716949619911490    0.293836213417236    0.661475048359459  0.0000
  O      O         0.288401049125902    0.722384783915156    0.561459706485945  0.0000
  O      O         0.987633245168013    0.398509782785824    0.134752746906098  0.0000
  O      O         0.571629543584670    0.719310458988904    0.562343558740899  0.0000
  O      O         0.456976984109550    0.553808848428348    0.560083623782083  0.0000
  O      O         0.607253721750709    0.612834178875126    0.505001780736770  0.0000
  O      O         0.433575832738833    0.297055834393023    0.062343559344689  0.0000
  Si     Si        0.452068527203693    0.075255495297591    0.830972935663280  0.0000
  Si     Si        0.764746899975552    0.532471571424617    0.633219938096387  0.0000
  Si     Si        0.553136849797161    0.625789656511471    0.179030625930643  0.0000
  Si     Si        0.386459275698033    0.946551048380657    0.565663762435000  0.0000
  Si     Si        0.764718018004220    0.246067819005109    0.034596206094669  0.0000
  Si     Si        0.386459275420115    0.453671830759850    0.565663761336626  0.0000
  O      O         0.432778824765020    0.150379654357125    0.848811712036983  0.0000
  O      O         0.551203930485932    0.105385631252590    0.846042937025575  0.0000
  O      O         0.428208973213463    0.047709788974130    0.755001780962202  0.0000
  O      O         0.392929323530825    0.993213704776838    0.875250814748221  0.0000
  O      O         0.714623058018632    0.578007010353252    0.661191848571560  0.0000
  O      O         0.766461676217602    0.535901125815671    0.554477064814983  0.0000
  O      O         0.716949620064676    0.436877010915452    0.661475047752699  0.0000
  O      O         0.288401048210517    0.579779868876985    0.561459706421394  0.0000
  O      O         0.612276053862713    0.602887069741400    0.134752747286610  0.0000
  O      O         0.291475373491099    0.866082688074226    0.562343560971550  0.0000
  O      O         0.456976983786443    0.916931738652524    0.560083626013804  0.0000
  O      O         0.397951653790861    0.008183145137536    0.505001781200101  0.0000
  O      O         0.713730002920034    0.150283605995481    0.062343560644370  0.0000
  Si     Si        0.620209196887248    0.075255493880009    0.679030625739436  0.0000
  Si     Si        0.764746901455991    0.532471573619864    0.876783622618759  0.0000
  Si     Si        0.069675035054503    0.625789655657558    0.330972935623145  0.0000
  Si     Si        0.557114003666977    0.946551051275791    0.944339800231695  0.0000
  Si     Si        0.478372028668602    0.246067816617484    0.475407355335472  0.0000
  Si     Si        0.064234786216341    0.453671833976112    0.944339799404962  0.0000
  O      O         0.714623058198766    0.150379652231511    0.661191847906914  0.0000
  O      O         0.551203929440326    0.105385629621944    0.663960624100286  0.0000
  O      O         0.616523045423501    0.047709789131092    0.755001780803918  0.0000
  O      O         0.597306609486796    0.993213702368284    0.634752747753911  0.0000
  O      O         0.860406182623181    0.578007012449193    0.848811712734226  0.0000
  O      O         0.766461678396358    0.535901128628531    0.955526495869471  0.0000
  O      O         0.716949621514347    0.436877013059390    0.848528513032497  0.0000
  O      O         0.288401051125549    0.579779872144436    0.948543854740692  0.0000
  O      O         0.987633243516715    0.602887067827962    0.375250813765178  0.0000
  O      O         0.571629545596026    0.866082691016302    0.947660002201128  0.0000
  O      O         0.456976985888270    0.916931741845755    0.949919937121901  0.0000
  O      O         0.607253723026117    0.008183148613933    0.005001781029608  0.0000
  O      O         0.433575830958056    0.150283602751022    0.447660002589897  0.0000
  Si     Si        0.335936022523475    0.674849815201720    0.976159101205412  0.0000
  Si     Si        0.335936020493144    0.674849812537105    0.376169395053308  0.0000
  O      O         0.335936022568936    0.674849815142029    0.055065911449633  0.0000
  Si     Si        0.935530340019052    0.558717307918187    0.679030625308813  0.0000
  Si     Si        0.478314263369896    0.246038935092381    0.876783622799084  0.0000
  Si     Si        0.384996178057389    0.457648984380050    0.330972935087291  0.0000
  Si     Si        0.064234786059569    0.624326560021419    0.944339799074724  0.0000
  Si     Si        0.764718016644347    0.246067816379038    0.475407355373766  0.0000
  Si     Si        0.557114003504021    0.624326559833035    0.944339799597742  0.0000
  O      O         0.860406181321748    0.578007010440706    0.661191847641299  0.0000
  O      O         0.905400204128978    0.459581904567493    0.663960624318408  0.0000
  O      O         0.963076045571779    0.582576862426434    0.755001780076236  0.0000
  O      O         0.017572131182094    0.617856511293181    0.634752746717112  0.0000
  O      O         0.432778824207646    0.296162777367124    0.848811713439148  0.0000
  O      O         0.474884708812728    0.244324156545887    0.955526496060990  0.0000
  O      O         0.573908823909655    0.293836215924866    0.848528513180554  0.0000
  O      O         0.431005965653810    0.722384786948917    0.948543854869149  0.0000
  O      O         0.407898764515579    0.398509780057477    0.375250813702865  0.0000
  O      O         0.144703146599320    0.719310462142332    0.947660000518217  0.0000
  O      O         0.093854095475878    0.553808851703241    0.949919936185260  0.0000
  O      O         0.002602688951227    0.612834182368573    0.005001779995675  0.0000
  O      O         0.860502229301742    0.297055831948849    0.447660000119080  0.0000
  Si     Si        0.452068526179455    0.390576637280450    0.679030626023602  0.0000
  Si     Si        0.764746901272149    0.246038935058216    0.876783622662474  0.0000
  Si     Si        0.553136849451994    0.941110798897505    0.330972935557567  0.0000
  Si     Si        0.386459277278900    0.453671833812856    0.944339799617385  0.0000
  Si     Si        0.764718015973850    0.532413803163557    0.475407354677311  0.0000
  Si     Si        0.386459277500470    0.946551051236275    0.944339800346811  0.0000
  O      O         0.432778823447422    0.296162775664970    0.661191849708400  0.0000
  O      O         0.551203929427974    0.459581904500798    0.663960624514723  0.0000
  O      O         0.428208972791162    0.394262789878892    0.755001780867636  0.0000
  O      O         0.392929322318369    0.413479224012165    0.634752747095574  0.0000
  O      O         0.714623059282657    0.150379654275628    0.848811711992210  0.0000
  O      O         0.766461677762321    0.244324156699075    0.955526495923541  0.0000
  O      O         0.716949621133813    0.293836215514512    0.848528513153552  0.0000
  O      O         0.288401050951527    0.722384786771459    0.948543854898612  0.0000
  O      O         0.612276053129318    0.023152589368211    0.375250814713044  0.0000
  O      O         0.291475375206702    0.439156292123365    0.947660001492413  0.0000
  O      O         0.456976985736373    0.553808851546940    0.949919936578335  0.0000
  O      O         0.397951655196088    0.403532114351613    0.005001780340625  0.0000
  O      O         0.713730000000055    0.577210000000036    0.447660000000042  0.0000
