data_ReferenceDataBase/8325000_111
_audit_creation_method             Generated by GULP
_audit_author_name                 Salvador R. G. Balestra
_symmetry_space_group_name_H-M     'P 1             '
_symmetry_Int_Tables_number        1

loop_
_symmetry_equiv_pos_site_id
_symmetry_equiv_pos_as_xyz
   1     +x,+y,+z                
_cell_length_a                       18.9157
_cell_length_b                       18.9157
_cell_length_c                       11.0951
_cell_angle_alpha                   90.0000
_cell_angle_beta                    90.0000
_cell_angle_gamma                  120.0000

loop_
_atom_site_label
_atom_site_type_symbol
_atom_site_fract_x
_atom_site_fract_y
_atom_site_fract_z
_atom_site_charge
  Si     Si        0.088900626650360    0.754559821503386    0.642631640234825  0.0000
  Si     Si        0.670450663864589    0.187148995552757    0.742842485834507  0.0000
  Si     Si        0.907614753072137    0.660972908289287    0.356725989451472  0.0000
  Si     Si        0.179246880693797    0.661397846438170    0.359113807547920  0.0000
  O      O         0.153735030968516    0.847013177201994    0.684209083644950  0.0000
  O      O         0.118841521899316    0.692934881691783    0.688734934611082  0.0000
  O      O         0.998131449109788    0.726824821640883    0.690564873753613  0.0000
  O      O         0.689703902774301    0.116795806371359    0.705814364442123  0.0000
  O      O         0.725874750319614    0.270476604548132    0.669468953790990  0.0000
  O      O         0.576743363927607    0.156288800206714    0.711385788525942  0.0000
  O      O         0.684852310769386    0.202847535333533    0.884999582893006  0.0000
  Si     Si        0.676968971456265    0.249092835168089    0.000224791153987  0.0000
  O      O         0.750352042588235    0.344003924732049    0.000224791176358  0.0000
  O      O         0.087146745704486    0.751604665656374    0.500224791088589  0.0000
  O      O         0.904569061281522    0.648087775743126    0.500224791323354  0.0000
  O      O         0.169668830711701    0.643198651161400    0.500224790959610  0.0000
  Si     Si        0.334948393395079    0.090618264875122    0.642631639912617  0.0000
  Si     Si        0.483909256290756    0.672168302247336    0.742842486203905  0.0000
  Si     Si        0.247249432147910    0.909332391373197    0.356725989115940  0.0000
  Si     Si        0.518456622009954    0.180964518440020    0.359113806970128  0.0000
  O      O         0.307329441645939    0.155452669141908    0.684209082192819  0.0000
  O      O         0.426514228424213    0.120559160455065    0.688734934995492  0.0000
  O      O         0.271914215711506    0.999849087511843    0.690564873885029  0.0000
  O      O         0.573515684795292    0.691421541337423    0.705814367048525  0.0000
  O      O         0.456005734055339    0.727592388470285    0.669468952636533  0.0000
  O      O         0.421062151969845    0.578461002245760    0.711385788814172  0.0000
  O      O         0.482612362756403    0.686569949521502    0.884999582961194  0.0000
  Si     Si        0.428483723572378    0.678686610159420    0.000224791050575  0.0000
  O      O         0.406955705224162    0.752069681335952    0.000224790894439  0.0000
  O      O         0.336149668961185    0.088864383439521    0.500224790723145  0.0000
  O      O         0.257088871712316    0.906286699744047    0.500224791023778  0.0000
  O      O         0.527077767032648    0.171386468016052    0.500224790379848  0.0000
  Si     Si        0.244937716784092    0.336666031809880    0.642631639787995  0.0000
  Si     Si        0.812348542467280    0.485626894493251    0.742842486600182  0.0000
  Si     Si        0.338524628989282    0.248967070578580    0.356725988830807  0.0000
  Si     Si        0.338099691200514    0.520174260402156    0.359113807200087  0.0000
  O      O         0.152484360919036    0.309047080207168    0.684209082386416  0.0000
  O      O         0.306562656442719    0.428231866797362    0.688734934682680  0.0000
  O      O         0.272672716498815    0.273631854054692    0.690564873380029  0.0000
  O      O         0.882701731773567    0.575233323035898    0.705814367663047  0.0000
  O      O         0.729020933968095    0.457723372420853    0.669468953067725  0.0000
  O      O         0.843208738342331    0.422779790370602    0.711385788694477  0.0000
  O      O         0.796650001752681    0.484330000489133    0.884999583516761  0.0000
  Si     Si        0.750404701412496    0.430201361059048    0.000224791010125  0.0000
  O      O         0.655493611880251    0.408673342658753    0.000224789649057  0.0000
  O      O         0.247892873230690    0.337867307139883    0.500224790615542  0.0000
  O      O         0.351409761438184    0.258806511238607    0.500224790680253  0.0000
  O      O         0.356298886856460    0.528795405709127    0.500224790586916  0.0000
  Si     Si        0.908879273174784    0.246655354702067    0.642631639948998  0.0000
  Si     Si        0.327329235883809    0.814066180696506    0.742842486004122  0.0000
  Si     Si        0.090165146321048    0.340242267107234    0.356725988688530  0.0000
  Si     Si        0.818533018571927    0.339817328991231    0.359113807554584  0.0000
  O      O         0.844044868877389    0.154201999094035    0.684209083475394  0.0000
  O      O         0.878938377997677    0.308280294579053    0.688734934383234  0.0000
  O      O         0.999648450782098    0.274390354717714    0.690564873481980  0.0000
  O      O         0.308075997076678    0.884419370056992    0.705814365384523  0.0000
  O      O         0.271905149607317    0.730738572075255    0.669468952715513  0.0000
  O      O         0.421036535922383    0.844926376195088    0.711385789252870  0.0000
  O      O         0.312927588369576    0.798367640140736    0.884999582803393  0.0000
  Si     Si        0.320810927812286    0.752122340323931    0.000224790864080  0.0000
  O      O         0.247427856631314    0.657211250773820    0.000224790711991  0.0000
  O      O         0.910633154032382    0.249610510276125    0.500224790783524  0.0000
  O      O         0.093210838222090    0.353127399378210    0.500224790556178  0.0000
  O      O         0.828111068676868    0.358016524504725    0.500224790925781  0.0000
  Si     Si        0.662831506395323    0.910596911359544    0.642631640223793  0.0000
  Si     Si        0.513870643388077    0.329046873693491    0.742842485868585  0.0000
  Si     Si        0.750530467348872    0.091882784136843    0.356725988861326  0.0000
  Si     Si        0.479323277364773    0.820250656946103    0.359113807760642  0.0000
  O      O         0.690450458251307    0.845762507193175    0.684209082400534  0.0000
  O      O         0.571265671441123    0.880656015877997    0.688734935506326  0.0000
  O      O         0.725865684121678    0.001366088833506    0.690564874056145  0.0000
  O      O         0.424264215129792    0.309793635065978    0.705814366068452  0.0000
  O      O         0.541774165720831    0.273622787850730    0.669468951210202  0.0000
  O      O         0.576717748067342    0.422754173873727    0.711385790513110  0.0000
  O      O         0.515167536196033    0.314645225053579    0.884999582294959  0.0000
  Si     Si        0.569296175595579    0.322528565245781    0.000224790604161  0.0000
  O      O         0.590824194005554    0.249145494098688    0.000224791600943  0.0000
  O      O         0.661630230649112    0.912350792622974    0.500224791036194  0.0000
  O      O         0.740691028158485    0.094928476089883    0.500224790763918  0.0000
  O      O         0.470702132528571    0.829828707731565    0.500224791145001  0.0000
  Si     Si        0.752842182941232    0.664549144319636    0.642631640620321  0.0000
  Si     Si        0.185431357491432    0.515588281753740    0.742842485771152  0.0000
  Si     Si        0.659255270435402    0.752248104957222    0.356725989354412  0.0000
  Si     Si        0.659680208196819    0.481040915165323    0.359113808567321  0.0000
  O      O         0.845295539053884    0.692168096311047    0.684209082563271  0.0000
  O      O         0.691217243493272    0.572983309463874    0.688734936206686  0.0000
  O      O         0.725107183370379    0.727583322302572    0.690564873863734  0.0000
  O      O         0.115078168082447    0.425981853483123    0.705814365650663  0.0000
  O      O         0.268758966021710    0.543491803976431    0.669468952339080  0.0000
  O      O         0.154571161950152    0.578435386259636    0.711385789095403  0.0000
  O      O         0.201129898183414    0.516885175092690    0.884999582557657  0.0000
  Si     Si        0.247375197693446    0.571013814383921    0.000224790816394  0.0000
  O      O         0.342286287230870    0.592541832749981    0.000224791142487  0.0000
  O      O         0.749887025834090    0.663347868215444    0.500224791439064  0.0000
  O      O         0.646370137842018    0.742408664469207    0.500224791211827  0.0000
  O      O         0.641481012402499    0.472419770355978    0.500224791945913  0.0000
  Si     Si        0.908879273008362    0.246655354385647    0.357817941615646  0.0000
  Si     Si        0.327329235688238    0.814066180363338    0.257607096016008  0.0000
  Si     Si        0.090165146468282    0.340242267386412    0.643723592441793  0.0000
  Si     Si        0.818533018943330    0.339817329532852    0.641335774427102  0.0000
  O      O         0.844044868764362    0.154201998685125    0.316240498142505  0.0000
  O      O         0.878938377630837    0.308280294106713    0.311714647291558  0.0000
  O      O         0.999648450530881    0.274390354358922    0.309884707877808  0.0000
  O      O         0.308075996818496    0.884419369665070    0.294635216873471  0.0000
  O      O         0.271905149344928    0.730738571619682    0.330980628757343  0.0000
  O      O         0.421036535697489    0.844926375826750    0.289063793060357  0.0000
  O      O         0.312927588360569    0.798367640079484    0.115449999110422  0.0000
  Si     Si        0.662831506252998    0.910596911003865    0.357817941850683  0.0000
  Si     Si        0.513870643380758    0.329046873576867    0.257607095620406  0.0000
  Si     Si        0.750530467445192    0.091882784520203    0.643723592682821  0.0000
  Si     Si        0.479323277527830    0.820250657210896    0.641335774540517  0.0000
  O      O         0.690450458030355    0.845762506713002    0.316240499812441  0.0000
  O      O         0.571265671249234    0.880656015463841    0.311714646646145  0.0000
  O      O         0.725865684026099    0.001366088329888    0.309884707813326  0.0000
  O      O         0.424264215004905    0.309793634598865    0.294635215325365  0.0000
  O      O         0.541774165643496    0.273622787179860    0.330980628583310  0.0000
  O      O         0.576717747898507    0.422754173463220    0.289063793310514  0.0000
  O      O         0.515167536647703    0.314645226531961    0.115449998730712  0.0000
  Si     Si        0.752842182710393    0.664549143903734    0.357817942276855  0.0000
  Si     Si        0.185431357189168    0.515588281439561    0.257607095590414  0.0000
  Si     Si        0.659255270652622    0.752248105344380    0.643723593047731  0.0000
  Si     Si        0.659680208384370    0.481040915550842    0.641335775284009  0.0000
  O      O         0.845295538690658    0.692168095701883    0.316240500056924  0.0000
  O      O         0.691217243191331    0.572983308909437    0.311714647202342  0.0000
  O      O         0.725107183044071    0.727583321700427    0.309884708710160  0.0000
  O      O         0.115078167861523    0.425981853041417    0.294635215126618  0.0000
  O      O         0.268758965723032    0.543491803612510    0.330980629043446  0.0000
  O      O         0.154571161502085    0.578435385768501    0.289063792942464  0.0000
  O      O         0.201129897881986    0.516885175105415    0.115449998757242  0.0000
  Si     Si        0.088900626413559    0.754559821183618    0.357817941943150  0.0000
  Si     Si        0.670450663678190    0.187148994961611    0.257607095883733  0.0000
  Si     Si        0.907614753313337    0.660972908739693    0.643723593158404  0.0000
  Si     Si        0.179246880916353    0.661397846745172    0.641335774324085  0.0000
  O      O         0.153735030672641    0.847013176809169    0.316240498459350  0.0000
  O      O         0.118841521618352    0.692934881335024    0.311714647464552  0.0000
  O      O         0.998131448759159    0.726824821126697    0.309884708611426  0.0000
  O      O         0.689703902590316    0.116795805702993    0.294635216625374  0.0000
  O      O         0.725874749880501    0.270476603663464    0.330980629062772  0.0000
  O      O         0.576743363587331    0.156288799313497    0.289063792482999  0.0000
  O      O         0.684852311200246    0.202847535440181    0.115449999080044  0.0000
  Si     Si        0.334948393154737    0.090618264532125    0.357817941526713  0.0000
  Si     Si        0.483909256118260    0.672168302037366    0.257607095841597  0.0000
  Si     Si        0.247249432401767    0.909332391686891    0.643723592937055  0.0000
  Si     Si        0.518456622252832    0.180964518988759    0.641335773704781  0.0000
  O      O         0.307329441431065    0.155452668784133    0.316240499246383  0.0000
  O      O         0.426514228047749    0.120559159820077    0.311714646138041  0.0000
  O      O         0.271914215295372    0.999849087046701    0.309884707904826  0.0000
  O      O         0.573515684492348    0.691421540900220    0.294635215430866  0.0000
  O      O         0.456005733837687    0.727592388130103    0.330980629848993  0.0000
  O      O         0.421062151639959    0.578461001965836    0.289063792247901  0.0000
  O      O         0.482612362851139    0.686569949805970    0.115449999221692  0.0000
  Si     Si        0.244937716658778    0.336666031559814    0.357817941440551  0.0000
  Si     Si        0.812348541826404    0.485626893903517    0.257607096450904  0.0000
  Si     Si        0.338524629101736    0.248967070848697    0.643723592545033  0.0000
  Si     Si        0.338099691409468    0.520174260651492    0.641335774013275  0.0000
  O      O         0.152484360726737    0.309047079819478    0.316240498862570  0.0000
  O      O         0.306562656244962    0.428231866505529    0.311714646498456  0.0000
  O      O         0.272672716405029    0.273631853777548    0.309884707911675  0.0000
  O      O         0.882701731499951    0.575233322416252    0.294635215253481  0.0000
  O      O         0.729020933860412    0.457723372036090    0.330980631366719  0.0000
  O      O         0.843208737596766    0.422779789524382    0.289063792815299  0.0000
  O      O         0.796650000000000    0.484330000000000    0.115450000000010  0.0000
