data_ReferenceDataBase/8325000_111
_audit_creation_method             Generated by GULP
_audit_author_name                 Salvador R. G. Balestra
_symmetry_space_group_name_H-M     'P 1             '
_symmetry_Int_Tables_number        1

loop_
_symmetry_equiv_pos_site_id
_symmetry_equiv_pos_as_xyz
   1     +x,+y,+z                
_cell_length_a                       18.9157
_cell_length_b                       18.9157
_cell_length_c                       11.0951
_cell_angle_alpha                   90.0000
_cell_angle_beta                    90.0000
_cell_angle_gamma                  120.0000

loop_
_atom_site_label
_atom_site_type_symbol
_atom_site_fract_x
_atom_site_fract_y
_atom_site_fract_z
_atom_site_charge
  Si     Si        0.088900599999988    0.754559800000038    0.642631599999959  0.0000
  Si     Si        0.670450699999947    0.187148999999977    0.742842500000052  0.0000
  Si     Si        0.907614800000033    0.660972900000047    0.356725999999981  0.0000
  Si     Si        0.179246899999953    0.661397899999997    0.359113800000046  0.0000
  O      O         0.153734999999983    0.847013199999992    0.684209099999975  0.0000
  O      O         0.118841500000030    0.692934899999955    0.688734899999986  0.0000
  O      O         0.998131500000000    0.726824800000031    0.690564900000027  0.0000
  O      O         0.689703900000040    0.116795799999977    0.705814400000008  0.0000
  O      O         0.725874699999963    0.270476600000052    0.669468899999970  0.0000
  O      O         0.576743400000055    0.156288799999970    0.711385800000016  0.0000
  O      O         0.684852299999989    0.202847499999962    0.884999600000015  0.0000
  Si     Si        0.676968999999985    0.249092799999971    0.000224799999955  0.0000
  O      O         0.750352000000021    0.344003899999962    0.000224799999955  0.0000
  O      O         0.087146699999948    0.751604700000030    0.500224799999955  0.0000
  O      O         0.904569100000003    0.648087799999985    0.500224799999955  0.0000
  O      O         0.169668799999954    0.643198699999971    0.500224799999955  0.0000
  Si     Si        0.334948400000030    0.090618299999960    0.642631599999959  0.0000
  Si     Si        0.483909199999971    0.672168299999953    0.742842500000052  0.0000
  Si     Si        0.247249399999987    0.909332400000039    0.356725999999981  0.0000
  Si     Si        0.518456600000036    0.180964499999959    0.359113800000046  0.0000
  O      O         0.307329399999958    0.155452699999955    0.684209099999975  0.0000
  O      O         0.426514200000042    0.120559200000002    0.688734899999986  0.0000
  O      O         0.271914199999969    0.999849100000006    0.690564900000027  0.0000
  O      O         0.573515700000030    0.691421600000012    0.705814400000008  0.0000
  O      O         0.456005699999992    0.727592400000049    0.669468899999970  0.0000
  O      O         0.421062099999972    0.578460999999947    0.711385800000016  0.0000
  O      O         0.482612399999994    0.686569899999995    0.884999600000015  0.0000
  Si     Si        0.428483700000015    0.678686599999992    0.000224799999955  0.0000
  O      O         0.406955700000026    0.752069699999993    0.000224799999955  0.0000
  O      O         0.336149699999964    0.088864400000034    0.500224799999955  0.0000
  O      O         0.257088899999985    0.906286700000010    0.500224799999955  0.0000
  O      O         0.527077800000029    0.171386500000040    0.500224799999955  0.0000
  Si     Si        0.244937700000037    0.336666000000037    0.642631599999959  0.0000
  Si     Si        0.812348499999985    0.485626900000057    0.742842500000052  0.0000
  Si     Si        0.338524600000028    0.248967099999959    0.356725999999981  0.0000
  Si     Si        0.338099700000043    0.520174300000008    0.359113800000046  0.0000
  O      O         0.152484400000048    0.309047100000043    0.684209099999975  0.0000
  O      O         0.306562699999972    0.428231900000014    0.688734899999986  0.0000
  O      O         0.272672700000044    0.273631799999976    0.690564900000027  0.0000
  O      O         0.882701799999950    0.575233300000036    0.705814400000008  0.0000
  O      O         0.729020999999989    0.457723399999963    0.669468899999970  0.0000
  O      O         0.843208699999991    0.422779799999944    0.711385800000016  0.0000
  O      O         0.796650000000000    0.484330000000000    0.884999600000015  0.0000
  Si     Si        0.750404699999990    0.430201399999987    0.000224799999955  0.0000
  O      O         0.655493600000000    0.408673300000032    0.000224799999955  0.0000
  O      O         0.247892900000011    0.337867299999971    0.500224799999955  0.0000
  O      O         0.351409800000056    0.258806499999992    0.500224799999955  0.0000
  O      O         0.356298899999956    0.528795400000035    0.500224799999955  0.0000
  Si     Si        0.908879299999967    0.246655400000009    0.642631599999959  0.0000
  Si     Si        0.327329200000008    0.814066199999957    0.742842500000052  0.0000
  Si     Si        0.090165100000036    0.340242300000000    0.356725999999981  0.0000
  Si     Si        0.818533000000002    0.339817300000050    0.359113800000046  0.0000
  O      O         0.844044899999972    0.154202000000055    0.684209099999975  0.0000
  O      O         0.878938400000038    0.308280299999979    0.688734899999986  0.0000
  O      O         0.999648500000035    0.274390300000050    0.690564900000027  0.0000
  O      O         0.308076000000028    0.884419399999956    0.705814400000008  0.0000
  O      O         0.271905199999992    0.730738599999995    0.669468899999970  0.0000
  O      O         0.421036500000014    0.844926399999963    0.711385800000016  0.0000
  O      O         0.312927599999966    0.798367600000006    0.884999600000015  0.0000
  Si     Si        0.320810899999969    0.752122299999996    0.000224799999955  0.0000
  O      O         0.247427900000048    0.657211200000006    0.000224799999955  0.0000
  O      O         0.910633100000041    0.249610500000017    0.500224799999955  0.0000
  O      O         0.093210799999952    0.353127399999948    0.500224799999955  0.0000
  O      O         0.828111100000001    0.358016499999962    0.500224799999955  0.0000
  Si     Si        0.662831500000038    0.910596899999973    0.642631599999959  0.0000
  Si     Si        0.513870699999984    0.329046899999980    0.742842500000052  0.0000
  Si     Si        0.750530499999968    0.091882800000008    0.356725999999981  0.0000
  Si     Si        0.479323300000033    0.820250600000008    0.359113800000046  0.0000
  O      O         0.690450400000032    0.845762499999978    0.684209099999975  0.0000
  O      O         0.571265700000026    0.880656000000045    0.688734899999986  0.0000
  O      O         0.725865699999986    0.001366100000041    0.690564900000027  0.0000
  O      O         0.424264200000039    0.309793600000035    0.705814400000008  0.0000
  O      O         0.541774199999963    0.273622799999998    0.669468899999970  0.0000
  O      O         0.576717700000017    0.422754199999986    0.711385800000016  0.0000
  O      O         0.515167499999961    0.314645199999973    0.884999600000015  0.0000
  Si     Si        0.569296200000053    0.322528600000055    0.000224799999955  0.0000
  O      O         0.590824200000043    0.249145500000054    0.000224799999955  0.0000
  O      O         0.661630199999991    0.912350800000013    0.500224799999955  0.0000
  O      O         0.740690999999970    0.094928500000037    0.500224799999955  0.0000
  O      O         0.470702100000040    0.829828700000007    0.500224799999955  0.0000
  Si     Si        0.752842200000032    0.664549200000010    0.642631599999959  0.0000
  Si     Si        0.185431399999970    0.515588299999990    0.742842500000052  0.0000
  Si     Si        0.659255300000041    0.752248099999974    0.356725999999981  0.0000
  Si     Si        0.659680200000025    0.481040900000039    0.359113800000046  0.0000
  O      O         0.845295500000020    0.692168100000004    0.684209099999975  0.0000
  O      O         0.691217199999983    0.572983300000033    0.688734899999986  0.0000
  O      O         0.725107200000025    0.727583299999992    0.690564900000027  0.0000
  O      O         0.115078199999971    0.425981800000045    0.705814400000008  0.0000
  O      O         0.268759000000045    0.543491799999970    0.669468899999970  0.0000
  O      O         0.154571199999964    0.578435399999989    0.711385800000016  0.0000
  O      O         0.201129899999955    0.516885200000047    0.884999600000015  0.0000
  Si     Si        0.247375199999965    0.571013799999946    0.000224799999955  0.0000
  O      O         0.342286299999955    0.592541800000049    0.000224799999955  0.0000
  O      O         0.749886999999944    0.663347799999997    0.500224799999955  0.0000
  O      O         0.646370100000013    0.742408700000055    0.500224799999955  0.0000
  O      O         0.641480999999999    0.472419800000011    0.500224799999955  0.0000
  Si     Si        0.908879299999967    0.246655400000009    0.357817899999986  0.0000
  Si     Si        0.327329200000008    0.814066199999957    0.257607099999973  0.0000
  Si     Si        0.090165100000036    0.340242300000000    0.643723600000044  0.0000
  Si     Si        0.818533000000002    0.339817300000050    0.641335799999979  0.0000
  O      O         0.844044899999972    0.154202000000055    0.316240500000049  0.0000
  O      O         0.878938400000038    0.308280299999979    0.311714599999959  0.0000
  O      O         0.999648500000035    0.274390300000050    0.309884699999998  0.0000
  O      O         0.308076000000028    0.884419399999956    0.294635200000016  0.0000
  O      O         0.271905199999992    0.730738599999995    0.330980599999975  0.0000
  O      O         0.421036500000014    0.844926399999963    0.289063800000008  0.0000
  O      O         0.312927599999966    0.798367600000006    0.115450000000010  0.0000
  Si     Si        0.662831500000038    0.910596899999973    0.357817899999986  0.0000
  Si     Si        0.513870699999984    0.329046899999980    0.257607099999973  0.0000
  Si     Si        0.750530499999968    0.091882800000008    0.643723600000044  0.0000
  Si     Si        0.479323300000033    0.820250600000008    0.641335799999979  0.0000
  O      O         0.690450400000032    0.845762499999978    0.316240500000049  0.0000
  O      O         0.571265700000026    0.880656000000045    0.311714599999959  0.0000
  O      O         0.725865699999986    0.001366100000041    0.309884699999998  0.0000
  O      O         0.424264200000039    0.309793600000035    0.294635200000016  0.0000
  O      O         0.541774199999963    0.273622799999998    0.330980599999975  0.0000
  O      O         0.576717700000017    0.422754199999986    0.289063800000008  0.0000
  O      O         0.515167499999961    0.314645199999973    0.115450000000010  0.0000
  Si     Si        0.752842200000032    0.664549200000010    0.357817899999986  0.0000
  Si     Si        0.185431399999970    0.515588299999990    0.257607099999973  0.0000
  Si     Si        0.659255300000041    0.752248099999974    0.643723600000044  0.0000
  Si     Si        0.659680200000025    0.481040900000039    0.641335799999979  0.0000
  O      O         0.845295500000020    0.692168100000004    0.316240500000049  0.0000
  O      O         0.691217199999983    0.572983300000033    0.311714599999959  0.0000
  O      O         0.725107200000025    0.727583299999992    0.309884699999998  0.0000
  O      O         0.115078199999971    0.425981800000045    0.294635200000016  0.0000
  O      O         0.268759000000045    0.543491799999970    0.330980599999975  0.0000
  O      O         0.154571199999964    0.578435399999989    0.289063800000008  0.0000
  O      O         0.201129899999955    0.516885200000047    0.115450000000010  0.0000
  Si     Si        0.088900599999988    0.754559800000038    0.357817899999986  0.0000
  Si     Si        0.670450699999947    0.187148999999977    0.257607099999973  0.0000
  Si     Si        0.907614800000033    0.660972900000047    0.643723600000044  0.0000
  Si     Si        0.179246899999953    0.661397899999997    0.641335799999979  0.0000
  O      O         0.153734999999983    0.847013199999992    0.316240500000049  0.0000
  O      O         0.118841500000030    0.692934899999955    0.311714599999959  0.0000
  O      O         0.998131500000000    0.726824800000031    0.309884699999998  0.0000
  O      O         0.689703900000040    0.116795799999977    0.294635200000016  0.0000
  O      O         0.725874699999963    0.270476600000052    0.330980599999975  0.0000
  O      O         0.576743400000055    0.156288799999970    0.289063800000008  0.0000
  O      O         0.684852299999989    0.202847499999962    0.115450000000010  0.0000
  Si     Si        0.334948400000030    0.090618299999960    0.357817899999986  0.0000
  Si     Si        0.483909199999971    0.672168299999953    0.257607099999973  0.0000
  Si     Si        0.247249399999987    0.909332400000039    0.643723600000044  0.0000
  Si     Si        0.518456600000036    0.180964499999959    0.641335799999979  0.0000
  O      O         0.307329399999958    0.155452699999955    0.316240500000049  0.0000
  O      O         0.426514200000042    0.120559200000002    0.311714599999959  0.0000
  O      O         0.271914199999969    0.999849100000006    0.309884699999998  0.0000
  O      O         0.573515700000030    0.691421600000012    0.294635200000016  0.0000
  O      O         0.456005699999992    0.727592400000049    0.330980599999975  0.0000
  O      O         0.421062099999972    0.578460999999947    0.289063800000008  0.0000
  O      O         0.482612399999994    0.686569899999995    0.115450000000010  0.0000
  Si     Si        0.244937700000037    0.336666000000037    0.357817899999986  0.0000
  Si     Si        0.812348499999985    0.485626900000057    0.257607099999973  0.0000
  Si     Si        0.338524600000028    0.248967099999959    0.643723600000044  0.0000
  Si     Si        0.338099700000043    0.520174300000008    0.641335799999979  0.0000
  O      O         0.152484400000048    0.309047100000043    0.316240500000049  0.0000
  O      O         0.306562699999972    0.428231900000014    0.311714599999959  0.0000
  O      O         0.272672700000044    0.273631799999976    0.309884699999998  0.0000
  O      O         0.882701799999950    0.575233300000036    0.294635200000016  0.0000
  O      O         0.729020999999989    0.457723399999963    0.330980599999975  0.0000
  O      O         0.843208699999991    0.422779799999944    0.289063800000008  0.0000
  O      O         0.796650000000000    0.484330000000000    0.115450000000010  0.0000
