data_ReferenceDataBase/8328529_111
_audit_creation_method             Generated by GULP
_audit_author_name                 Salvador R. G. Balestra
_symmetry_space_group_name_H-M     'P 1             '
_symmetry_Int_Tables_number        1

loop_
_symmetry_equiv_pos_site_id
_symmetry_equiv_pos_as_xyz
   1     +x,+y,+z                
_cell_length_a                       22.5293
_cell_length_b                       22.5293
_cell_length_c                       20.0575
_cell_angle_alpha                   90.0000
_cell_angle_beta                    90.0000
_cell_angle_gamma                  120.0000

loop_
_atom_site_label
_atom_site_type_symbol
_atom_site_fract_x
_atom_site_fract_y
_atom_site_fract_z
_atom_site_charge
  Si     Si        0.921652900000026    0.721450900000036    0.623438500000020  0.0000
  Si     Si        0.280800799999952    0.211462900000015    0.778181700000005  0.0000
  Si     Si        0.565187300000048    0.720646600000009    0.427379100000053  0.0000
  Si     Si        0.664304900000047    0.201426800000036    0.927482800000007  0.0000
  Si     Si        0.849055799999974    0.570994400000018    0.808481000000029  0.0000
  Si     Si        0.077090999999996    0.473971200000051    0.315124200000014  0.0000
  O      O         0.918089499999951    0.700906700000019    0.700795699999958  0.0000
  O      O         0.899510999999961    0.653490099999999    0.581327299999998  0.0000
  O      O         0.350065299999983    0.257397800000035    0.819365100000027  0.0000
  O      O         0.527474699999971    0.653981700000031    0.381420000000048  0.0000
  O      O         0.680143400000020    0.154560599999968    0.879027700000051  0.0000
  O      O         0.879689999999982    0.542660899999987    0.753770000000031  0.0000
  O      O         0.871238599999970    0.751504100000034    0.608685899999955  0.0000
  O      O         0.592553999999950    0.194134899999995    0.906304599999999  0.0000
  O      O         0.773204299999975    0.555435600000010    0.786439699999960  0.0000
  O      O         0.997718999999961    0.779644599999983    0.602592800000025  0.0000
  O      O         0.997718999999961    0.412881800000036    0.317504900000017  0.0000
  O      O         0.250584699999990    0.130897799999957    0.792859399999998  0.0000
  O      O         0.223208600000021    0.229954600000042    0.799727299999972  0.0000
  O      O         0.540676100000042    0.697450399999980    0.502925000000005  0.0000
  O      O         0.547556900000018    0.779383899999971    0.404750400000012  0.0000
  O      O         0.081213299999945    0.546212100000048    0.309668399999964  0.0000
  O      O         0.721328100000051    0.280855800000040    0.920557000000031  0.0000
  O      O         0.661875699999996    0.175469700000008    0.002925000000005  0.0000
  Si     Si        0.204666900000007    0.928398799999968    0.623438599999986  0.0000
  Si     Si        0.073802799999953    0.287546700000007    0.778181700000005  0.0000
  Si     Si        0.849005700000021    0.571933299999955    0.427379100000053  0.0000
  Si     Si        0.467343000000028    0.671050799999989    0.927482800000007  0.0000
  Si     Si        0.282526299999972    0.855801700000029    0.808481000000029  0.0000
  Si     Si        0.607584699999961    0.083836900000051    0.315124200000014  0.0000
  O      O         0.221647800000028    0.924835400000006    0.700795699999958  0.0000
  O      O         0.250485899999944    0.906256900000017    0.581327299999998  0.0000
  O      O         0.097132399999964    0.356811300000004    0.819365100000027  0.0000
  O      O         0.877958000000035    0.534220600000026    0.381420000000048  0.0000
  O      O         0.530047699999955    0.686889299999962    0.879027700000051  0.0000
  O      O         0.341494099999977    0.886435900000038    0.753770000000031  0.0000
  O      O         0.124199399999952    0.877984500000025    0.608685899999955  0.0000
  O      O         0.402883999999972    0.599299999999971    0.906304599999999  0.0000
  O      O         0.222233699999947    0.779950299999996    0.786439699999960  0.0000
  O      O         0.222539399999960    0.004464900000016    0.602592800000025  0.0000
  O      O         0.589302200000020    0.004464900000016    0.317504900000017  0.0000
  O      O         0.124151900000015    0.257330700000011    0.792859399999998  0.0000
  O      O         0.997718999999961    0.229954600000042    0.799727299999972  0.0000
  O      O         0.847690599999964    0.547422099999949    0.502925000000005  0.0000
  O      O         0.772638000000029    0.554302900000039    0.404750400000012  0.0000
  O      O         0.539466100000027    0.087959200000000    0.309668399999964  0.0000
  O      O         0.444937299999992    0.728074099999958    0.920557000000031  0.0000
  O      O         0.490870999999970    0.668621700000017    0.002925000000005  0.0000
  Si     Si        0.280733000000055    0.211412799999948    0.623438500000020  0.0000
  Si     Si        0.790721100000042    0.080548799999974    0.778181700000005  0.0000
  Si     Si        0.281537400000047    0.855751599999962    0.427379100000053  0.0000
  Si     Si        0.800757200000021    0.474088899999970    0.927482800000007  0.0000
  Si     Si        0.431189499999959    0.289272200000028    0.808481000000029  0.0000
  Si     Si        0.528212700000040    0.614330600000017    0.315124200000014  0.0000
  O      O         0.301277300000038    0.228393699999970    0.700795699999958  0.0000
  O      O         0.348693899999944    0.257231899999965    0.581327299999998  0.0000
  O      O         0.744786200000021    0.103878399999985    0.819365199999993  0.0000
  O      O         0.348202300000025    0.884703899999977    0.381420000000048  0.0000
  O      O         0.847623399999975    0.536793699999976    0.879027700000051  0.0000
  O      O         0.459523099999956    0.348240000000033    0.753770000000031  0.0000
  O      O         0.250679900000023    0.130945399999973    0.608685899999955  0.0000
  O      O         0.808049099999948    0.409629999999993    0.906304599999999  0.0000
  O      O         0.446748299999967    0.228979600000002    0.786439699999960  0.0000
  O      O         0.222539299999994    0.229285300000015    0.602592899999991  0.0000
  O      O         0.589302200000020    0.596048099999962    0.317504800000052  0.0000
  O      O         0.871286199999986    0.130897799999957    0.792859300000032  0.0000
  O      O         0.772229400000015    0.004464999999982    0.799727299999972  0.0000
  O      O         0.304733599999963    0.854436599999985    0.502925000000005  0.0000
  O      O         0.222800099999972    0.779383899999971    0.404750400000012  0.0000
  O      O         0.455971900000009    0.546212100000048    0.309668399999964  0.0000
  O      O         0.721328100000051    0.451683300000013    0.920557000000031  0.0000
  O      O         0.826714300000049    0.497616999999991    0.002925000000005  0.0000
  Si     Si        0.073785199999975    0.287478999999962    0.623438500000020  0.0000
  Si     Si        0.714637199999970    0.797466999999983    0.778181700000005  0.0000
  Si     Si        0.430250600000022    0.288283299999989    0.427379100000053  0.0000
  Si     Si        0.331133199999954    0.807503099999963    0.927482800000007  0.0000
  Si     Si        0.146382199999948    0.437935400000015    0.808481000000029  0.0000
  Si     Si        0.918347000000040    0.534958699999947    0.315124200000014  0.0000
  O      O         0.077348499999971    0.308023199999980    0.700795699999958  0.0000
  O      O         0.095926999999961    0.355439899999965    0.581327299999998  0.0000
  O      O         0.645372700000053    0.751532099999963    0.819365100000027  0.0000
  O      O         0.467963299999951    0.354948300000046    0.381420000000048  0.0000
  O      O         0.315294699999981    0.854369300000030    0.879027700000051  0.0000
  O      O         0.115748000000053    0.466269000000011    0.753770000000031  0.0000
  O      O         0.124199399999952    0.257425799999965    0.608685899999955  0.0000
  O      O         0.402883999999972    0.814795000000004    0.906304599999999  0.0000
  O      O         0.222233699999947    0.453494299999988    0.786439699999960  0.0000
  O      O         0.997718999999961    0.229285300000015    0.602592800000025  0.0000
  O      O         0.997718999999961    0.596048099999962    0.317504900000017  0.0000
  O      O         0.744853300000045    0.878032100000041    0.792859399999998  0.0000
  O      O         0.772229400000015    0.778975299999956    0.799727299999972  0.0000
  O      O         0.454761899999994    0.311479500000019    0.502925000000005  0.0000
  O      O         0.447881100000018    0.229546000000028    0.404750400000012  0.0000
  O      O         0.914224699999977    0.462717799999950    0.309668399999964  0.0000
  O      O         0.274109899999985    0.728074099999958    0.920557000000031  0.0000
  O      O         0.333562300000040    0.833460199999990    0.002925000000005  0.0000
  Si     Si        0.790771100000029    0.080531100000030    0.623438599999986  0.0000
  Si     Si        0.921635199999969    0.721383199999991    0.778181700000005  0.0000
  Si     Si        0.146432300000015    0.436996600000043    0.427379100000053  0.0000
  Si     Si        0.528095000000008    0.337879100000009    0.927482800000007  0.0000
  Si     Si        0.712911699999950    0.153128199999969    0.808481000000029  0.0000
  Si     Si        0.387853299999961    0.925092999999947    0.315124200000014  0.0000
  O      O         0.773790200000008    0.084094400000026    0.700795699999958  0.0000
  O      O         0.744952099999978    0.102672999999982    0.581327299999998  0.0000
  O      O         0.898305499999992    0.652118599999994    0.819365100000027  0.0000
  O      O         0.117480000000000    0.474709299999972    0.381420000000048  0.0000
  O      O         0.465390299999967    0.322040600000037    0.879027700000051  0.0000
  O      O         0.653944000000024    0.122493999999961    0.753770000000031  0.0000
  O      O         0.871238599999970    0.130945399999973    0.608685899999955  0.0000
  O      O         0.592553999999950    0.409629999999993    0.906304599999999  0.0000
  O      O         0.773204299999975    0.228979600000002    0.786439699999960  0.0000
  O      O         0.772898700000042    0.004464999999982    0.602592800000025  0.0000
  O      O         0.406135899999981    0.004464999999982    0.317504900000017  0.0000
  O      O         0.871286199999986    0.751599299999953    0.792859399999998  0.0000
  O      O         0.997718999999961    0.778975299999956    0.799727299999972  0.0000
  O      O         0.147747299999992    0.461507900000015    0.502925000000005  0.0000
  O      O         0.222800000000007    0.454626999999959    0.404750400000012  0.0000
  O      O         0.455971900000009    0.920970699999998    0.309668399999964  0.0000
  O      O         0.550500700000043    0.280855800000040    0.920557000000031  0.0000
  O      O         0.504566999999952    0.340308199999981    0.002925000000005  0.0000
  Si     Si        0.714704900000015    0.797517100000050    0.623438500000020  0.0000
  Si     Si        0.204716999999960    0.928381100000024    0.778181700000005  0.0000
  Si     Si        0.713900599999988    0.153178199999957    0.427379100000053  0.0000
  Si     Si        0.194680899999980    0.534840899999949    0.927482800000007  0.0000
  Si     Si        0.564248499999962    0.719657699999971    0.808481000000029  0.0000
  Si     Si        0.467225299999996    0.394599299999982    0.315124200000014  0.0000
  O      O         0.694160799999963    0.780536200000029    0.700795699999958  0.0000
  O      O         0.646744099999978    0.751698000000033    0.581327299999998  0.0000
  O      O         0.250651800000014    0.905051500000013    0.819365199999993  0.0000
  O      O         0.647235700000010    0.124226000000021    0.381420000000048  0.0000
  O      O         0.147814599999947    0.472136200000023    0.879027700000051  0.0000
  O      O         0.535915000000045    0.660689899999966    0.753770000000031  0.0000
  O      O         0.744758100000013    0.877984500000025    0.608685899999955  0.0000
  O      O         0.187388899999974    0.599299900000005    0.906304599999999  0.0000
  O      O         0.548689699999954    0.779950299999996    0.786439699999960  0.0000
  O      O         0.772898700000042    0.779644599999983    0.602592899999991  0.0000
  O      O         0.406135899999981    0.412881800000036    0.317504800000052  0.0000
  O      O         0.124151800000050    0.878032100000041    0.792859300000032  0.0000
  O      O         0.223208600000021    0.004464999999982    0.799727299999972  0.0000
  O      O         0.690704399999959    0.154493300000013    0.502925000000005  0.0000
  O      O         0.772637899999950    0.229546000000028    0.404750400000012  0.0000
  O      O         0.539466100000027    0.462717799999950    0.309668399999964  0.0000
  O      O         0.274109800000019    0.557246599999985    0.920557000000031  0.0000
  O      O         0.168723699999987    0.511312900000007    0.002925000000005  0.0000
  Si     Si        0.280733100000020    0.080531100000030    0.382411499999989  0.0000
  Si     Si        0.790721100000042    0.721383199999991    0.227668300000005  0.0000
  Si     Si        0.281537400000047    0.436996600000043    0.578470899999957  0.0000
  Si     Si        0.800757100000055    0.337879100000009    0.078367200000002  0.0000
  Si     Si        0.431189499999959    0.153128199999969    0.197368999999981  0.0000
  Si     Si        0.528212700000040    0.925092999999947    0.690725799999996  0.0000
  O      O         0.301277300000038    0.084094499999992    0.305054300000052  0.0000
  O      O         0.348693899999944    0.102672900000016    0.424522700000011  0.0000
  O      O         0.744786100000056    0.652118599999994    0.186484800000017  0.0000
  O      O         0.348202300000025    0.474709200000007    0.624429999999961  0.0000
  O      O         0.847623399999975    0.322040600000037    0.126822299999958  0.0000
  O      O         0.459523099999956    0.122493999999961    0.252079999999978  0.0000
  O      O         0.250679900000023    0.130945399999973    0.397164200000020  0.0000
  O      O         0.808049099999948    0.409629999999993    0.099545400000011  0.0000
  O      O         0.446748299999967    0.228979600000002    0.219410300000050  0.0000
  O      O         0.222539399999960    0.004464900000016    0.403257199999985  0.0000
  O      O         0.589302200000020    0.004464900000016    0.688345199999958  0.0000
  O      O         0.871286199999986    0.751599299999953    0.212990600000012  0.0000
  O      O         0.772229400000015    0.778975299999956    0.206122700000037  0.0000
  O      O         0.304733499999998    0.461507800000049    0.502925000000005  0.0000
  O      O         0.222800000000007    0.454626999999959    0.601099599999998  0.0000
  O      O         0.455971900000009    0.920970699999998    0.696181700000011  0.0000
  O      O         0.721328100000051    0.280855800000040    0.085292999999979  0.0000
  O      O         0.826714300000049    0.340308199999981    0.002925000000005  0.0000
  Si     Si        0.204666900000007    0.287478999999962    0.382411499999989  0.0000
  Si     Si        0.073802799999953    0.797466999999983    0.227668300000005  0.0000
  Si     Si        0.849005700000021    0.288283299999989    0.578470899999957  0.0000
  Si     Si        0.467343000000028    0.807503099999963    0.078367200000002  0.0000
  Si     Si        0.282526299999972    0.437935400000015    0.197368999999981  0.0000
  Si     Si        0.607584699999961    0.534958699999947    0.690725799999996  0.0000
  O      O         0.221647699999949    0.308023199999980    0.305054300000052  0.0000
  O      O         0.250485899999944    0.355439799999999    0.424522700000011  0.0000
  O      O         0.097132500000043    0.751532099999963    0.186484800000017  0.0000
  O      O         0.877958000000035    0.354948300000046    0.624429999999961  0.0000
  O      O         0.530047699999955    0.854369300000030    0.126822299999958  0.0000
  O      O         0.341494099999977    0.466269000000011    0.252079999999978  0.0000
  O      O         0.124199399999952    0.257425799999965    0.397164200000020  0.0000
  O      O         0.402883999999972    0.814795000000004    0.099545400000011  0.0000
  O      O         0.222233699999947    0.453494299999988    0.219410300000050  0.0000
  O      O         0.222539299999994    0.229285300000015    0.403257199999985  0.0000
  O      O         0.589302200000020    0.596048099999962    0.688345199999958  0.0000
  O      O         0.124151800000050    0.878032100000041    0.212990699999978  0.0000
  O      O         0.997718999999961    0.778975299999956    0.206122700000037  0.0000
  O      O         0.847690599999964    0.311479500000019    0.502925000000005  0.0000
  O      O         0.772637899999950    0.229546000000028    0.601099599999998  0.0000
  O      O         0.539466100000027    0.462717799999950    0.696181700000011  0.0000
  O      O         0.444937299999992    0.728074099999958    0.085292999999979  0.0000
  O      O         0.490870999999970    0.833460299999956    0.002925000000005  0.0000
  Si     Si        0.921652900000026    0.211412900000028    0.382411499999989  0.0000
  Si     Si        0.280800799999952    0.080548799999974    0.227668300000005  0.0000
  Si     Si        0.565187300000048    0.855751700000042    0.578470899999957  0.0000
  Si     Si        0.664304900000047    0.474088899999970    0.078367200000002  0.0000
  Si     Si        0.849055799999974    0.289272200000028    0.197368999999981  0.0000
  Si     Si        0.077090999999996    0.614330600000017    0.690725799999996  0.0000
  O      O         0.918089499999951    0.228393800000049    0.305054300000052  0.0000
  O      O         0.899510999999961    0.257231800000000    0.424522700000011  0.0000
  O      O         0.350065299999983    0.103878399999985    0.186484899999982  0.0000
  O      O         0.527474699999971    0.884703899999977    0.624429999999961  0.0000
  O      O         0.680143300000054    0.536793699999976    0.126822299999958  0.0000
  O      O         0.879689999999982    0.348240000000033    0.252079999999978  0.0000
  O      O         0.871238599999970    0.130945399999973    0.397164100000055  0.0000
  O      O         0.592553999999950    0.409629999999993    0.099545400000011  0.0000
  O      O         0.773204299999975    0.228979600000002    0.219410300000050  0.0000
  O      O         0.997718999999961    0.229285300000015    0.403257199999985  0.0000
  O      O         0.997718999999961    0.596048099999962    0.688345199999958  0.0000
  O      O         0.250584699999990    0.130897799999957    0.212990600000012  0.0000
  O      O         0.223208600000021    0.004464999999982    0.206122700000037  0.0000
  O      O         0.540676100000042    0.854436599999985    0.502925000000005  0.0000
  O      O         0.547556900000018    0.779383899999971    0.601099599999998  0.0000
  O      O         0.081213299999945    0.546212100000048    0.696181700000011  0.0000
  O      O         0.721328100000051    0.451683300000013    0.085292999999979  0.0000
  O      O         0.661875699999996    0.497616900000025    0.002925000000005  0.0000
  Si     Si        0.714704900000015    0.928398799999968    0.382411499999989  0.0000
  Si     Si        0.204716999999960    0.287546700000007    0.227668300000005  0.0000
  Si     Si        0.713900599999988    0.571933299999955    0.578470899999957  0.0000
  Si     Si        0.194680899999980    0.671050799999989    0.078367200000002  0.0000
  Si     Si        0.564248499999962    0.855801700000029    0.197368999999981  0.0000
  Si     Si        0.467225299999996    0.083836900000051    0.690725799999996  0.0000
  O      O         0.694160799999963    0.924835400000006    0.305054300000052  0.0000
  O      O         0.646744099999978    0.906256999999982    0.424522700000011  0.0000
  O      O         0.250651899999980    0.356811300000004    0.186484800000017  0.0000
  O      O         0.647235700000010    0.534220600000026    0.624429999999961  0.0000
  O      O         0.147814599999947    0.686889299999962    0.126822299999958  0.0000
  O      O         0.535914899999966    0.886435900000038    0.252079999999978  0.0000
  O      O         0.744758100000013    0.877984500000025    0.397164200000020  0.0000
  O      O         0.187388899999974    0.599299900000005    0.099545400000011  0.0000
  O      O         0.548689699999954    0.779950299999996    0.219410300000050  0.0000
  O      O         0.772898700000042    0.004464999999982    0.403257199999985  0.0000
  O      O         0.406135899999981    0.004464999999982    0.688345099999992  0.0000
  O      O         0.124151900000015    0.257330700000011    0.212990600000012  0.0000
  O      O         0.223208600000021    0.229954600000042    0.206122700000037  0.0000
  O      O         0.690704500000038    0.547422099999949    0.502925000000005  0.0000
  O      O         0.772638000000029    0.554302900000039    0.601099599999998  0.0000
  O      O         0.539466100000027    0.087959200000000    0.696181700000011  0.0000
  O      O         0.274109899999985    0.728074099999958    0.085292999999979  0.0000
  O      O         0.168723699999987    0.668621700000017    0.002925000000005  0.0000
  Si     Si        0.790771100000029    0.721450900000036    0.382411499999989  0.0000
  Si     Si        0.921635199999969    0.211462900000015    0.227668300000005  0.0000
  Si     Si        0.146432300000015    0.720646600000009    0.578470899999957  0.0000
  Si     Si        0.528095000000008    0.201426800000036    0.078367200000002  0.0000
  Si     Si        0.712911699999950    0.570994400000018    0.197368999999981  0.0000
  Si     Si        0.387853299999961    0.473971200000051    0.690725799999996  0.0000
  O      O         0.773790200000008    0.700906700000019    0.305054300000052  0.0000
  O      O         0.744952099999978    0.653490099999999    0.424522700000011  0.0000
  O      O         0.898305499999992    0.257397800000035    0.186484800000017  0.0000
  O      O         0.117480000000000    0.653981700000031    0.624429999999961  0.0000
  O      O         0.465390299999967    0.154560599999968    0.126822299999958  0.0000
  O      O         0.653944000000024    0.542660899999987    0.252079999999978  0.0000
  O      O         0.871238599999970    0.751504100000034    0.397164200000020  0.0000
  O      O         0.592553999999950    0.194134899999995    0.099545400000011  0.0000
  O      O         0.773204299999975    0.555435600000010    0.219410300000050  0.0000
  O      O         0.772898700000042    0.779644599999983    0.403257199999985  0.0000
  O      O         0.406135899999981    0.412881800000036    0.688345199999958  0.0000
  O      O         0.871286199999986    0.130897799999957    0.212990699999978  0.0000
  O      O         0.997718999999961    0.229954600000042    0.206122700000037  0.0000
  O      O         0.147747299999992    0.697450399999980    0.502925000000005  0.0000
  O      O         0.222800099999972    0.779383899999971    0.601099599999998  0.0000
  O      O         0.455971900000009    0.546212100000048    0.696181700000011  0.0000
  O      O         0.550500700000043    0.280855800000040    0.085292999999979  0.0000
  O      O         0.504566999999952    0.175469600000042    0.002925000000005  0.0000
  Si     Si        0.073785199999975    0.797517100000050    0.382411499999989  0.0000
  Si     Si        0.714637199999970    0.928381100000024    0.227668300000005  0.0000
  Si     Si        0.430250699999988    0.153178199999957    0.578470899999957  0.0000
  Si     Si        0.331133199999954    0.534841000000029    0.078367200000002  0.0000
  Si     Si        0.146382199999948    0.719657699999971    0.197368999999981  0.0000
  Si     Si        0.918347100000005    0.394599299999982    0.690725799999996  0.0000
  O      O         0.077348499999971    0.780536200000029    0.305054300000052  0.0000
  O      O         0.095926999999961    0.751698099999999    0.424522700000011  0.0000
  O      O         0.645372700000053    0.905051500000013    0.186484899999982  0.0000
  O      O         0.467963299999951    0.124226000000021    0.624429999999961  0.0000
  O      O         0.315294699999981    0.472136200000023    0.126822299999958  0.0000
  O      O         0.115748000000053    0.660689899999966    0.252079999999978  0.0000
  O      O         0.124199399999952    0.877984500000025    0.397164100000055  0.0000
  O      O         0.402883999999972    0.599299999999971    0.099545400000011  0.0000
  O      O         0.222233699999947    0.779950299999996    0.219410300000050  0.0000
  O      O         0.997718999999961    0.779644599999983    0.403257199999985  0.0000
  O      O         0.997718999999961    0.412881800000036    0.688345099999992  0.0000
  O      O         0.744853300000045    0.878032100000041    0.212990600000012  0.0000
  O      O         0.772229400000015    0.004464999999982    0.206122700000037  0.0000
  O      O         0.454761899999994    0.154493300000013    0.502925000000005  0.0000
  O      O         0.447881100000018    0.229546000000028    0.601099599999998  0.0000
  O      O         0.914224699999977    0.462717799999950    0.696181700000011  0.0000
  O      O         0.274109800000019    0.557246599999985    0.085292999999979  0.0000
  O      O         0.333562300000040    0.511312999999973    0.002925000000005  0.0000
  Si     Si        0.073785199999975    0.287478999999962    0.382411499999989  0.0000
  Si     Si        0.714637199999970    0.797466999999983    0.227668300000005  0.0000
  Si     Si        0.430250600000022    0.288283299999989    0.578470899999957  0.0000
  Si     Si        0.331133199999954    0.807503099999963    0.078367200000002  0.0000
  Si     Si        0.146382199999948    0.437935400000015    0.197368999999981  0.0000
  Si     Si        0.918347000000040    0.534958699999947    0.690725799999996  0.0000
  O      O         0.077348499999971    0.308023199999980    0.305054300000052  0.0000
  O      O         0.095926999999961    0.355439899999965    0.424522700000011  0.0000
  O      O         0.645372700000053    0.751532099999963    0.186484800000017  0.0000
  O      O         0.467963299999951    0.354948300000046    0.624429999999961  0.0000
  O      O         0.315294699999981    0.854369300000030    0.126822299999958  0.0000
  O      O         0.115748000000053    0.466269000000011    0.252079999999978  0.0000
  Si     Si        0.790771100000029    0.080531100000030    0.382411499999989  0.0000
  Si     Si        0.921635199999969    0.721383199999991    0.227668300000005  0.0000
  Si     Si        0.146432300000015    0.436996600000043    0.578470899999957  0.0000
  Si     Si        0.528095000000008    0.337879100000009    0.078367200000002  0.0000
  Si     Si        0.712911699999950    0.153128199999969    0.197368999999981  0.0000
  Si     Si        0.387853299999961    0.925092999999947    0.690725799999996  0.0000
  O      O         0.773790200000008    0.084094400000026    0.305054300000052  0.0000
  O      O         0.744952099999978    0.102672999999982    0.424522700000011  0.0000
  O      O         0.898305499999992    0.652118599999994    0.186484899999982  0.0000
  O      O         0.117480000000000    0.474709299999972    0.624429999999961  0.0000
  O      O         0.465390299999967    0.322040600000037    0.126822299999958  0.0000
  O      O         0.653944000000024    0.122493999999961    0.252079999999978  0.0000
  Si     Si        0.714704900000015    0.797517100000050    0.382411499999989  0.0000
  Si     Si        0.204716999999960    0.928381100000024    0.227668300000005  0.0000
  Si     Si        0.713900599999988    0.153178199999957    0.578470899999957  0.0000
  Si     Si        0.194680899999980    0.534840899999949    0.078367200000002  0.0000
  Si     Si        0.564248499999962    0.719657699999971    0.197368999999981  0.0000
  Si     Si        0.467225299999996    0.394599299999982    0.690725799999996  0.0000
  O      O         0.694160799999963    0.780536200000029    0.305054300000052  0.0000
  O      O         0.646744099999978    0.751698000000033    0.424522700000011  0.0000
  O      O         0.250651800000014    0.905051500000013    0.186484800000017  0.0000
  O      O         0.647235700000010    0.124226000000021    0.624429999999961  0.0000
  O      O         0.147814599999947    0.472136200000023    0.126822299999958  0.0000
  O      O         0.535915000000045    0.660689899999966    0.252079999999978  0.0000
  Si     Si        0.921652900000026    0.721450900000036    0.382411499999989  0.0000
  Si     Si        0.280800799999952    0.211462900000015    0.227668300000005  0.0000
  Si     Si        0.565187300000048    0.720646600000009    0.578470899999957  0.0000
  Si     Si        0.664304900000047    0.201426800000036    0.078367200000002  0.0000
  Si     Si        0.849055799999974    0.570994400000018    0.197368999999981  0.0000
  Si     Si        0.077090999999996    0.473971200000051    0.690725799999996  0.0000
  O      O         0.918089499999951    0.700906700000019    0.305054300000052  0.0000
  O      O         0.899510999999961    0.653490099999999    0.424522700000011  0.0000
  O      O         0.350065299999983    0.257397800000035    0.186484800000017  0.0000
  O      O         0.527474699999971    0.653981700000031    0.624429999999961  0.0000
  O      O         0.680143400000020    0.154560599999968    0.126822299999958  0.0000
  O      O         0.879689999999982    0.542660899999987    0.252079999999978  0.0000
  Si     Si        0.204666900000007    0.928398799999968    0.382411499999989  0.0000
  Si     Si        0.073802799999953    0.287546700000007    0.227668300000005  0.0000
  Si     Si        0.849005700000021    0.571933299999955    0.578470899999957  0.0000
  Si     Si        0.467343000000028    0.671050799999989    0.078367200000002  0.0000
  Si     Si        0.282526299999972    0.855801700000029    0.197368999999981  0.0000
  Si     Si        0.607584699999961    0.083836900000051    0.690725799999996  0.0000
  O      O         0.221647800000028    0.924835400000006    0.305054300000052  0.0000
  O      O         0.250485899999944    0.906256900000017    0.424522700000011  0.0000
  O      O         0.097132399999964    0.356811300000004    0.186484899999982  0.0000
  O      O         0.877958000000035    0.534220600000026    0.624429999999961  0.0000
  O      O         0.530047699999955    0.686889299999962    0.126822299999958  0.0000
  O      O         0.341494099999977    0.886435900000038    0.252079999999978  0.0000
  Si     Si        0.280733000000055    0.211412799999948    0.382411499999989  0.0000
  Si     Si        0.790721100000042    0.080548799999974    0.227668300000005  0.0000
  Si     Si        0.281537400000047    0.855751599999962    0.578470899999957  0.0000
  Si     Si        0.800757200000021    0.474088899999970    0.078367200000002  0.0000
  Si     Si        0.431189499999959    0.289272200000028    0.197368999999981  0.0000
  Si     Si        0.528212700000040    0.614330600000017    0.690725799999996  0.0000
  O      O         0.301277300000038    0.228393699999970    0.305054300000052  0.0000
  O      O         0.348693899999944    0.257231899999965    0.424522700000011  0.0000
  O      O         0.744786200000021    0.103878399999985    0.186484800000017  0.0000
  O      O         0.348202300000025    0.884703899999977    0.624429999999961  0.0000
  O      O         0.847623399999975    0.536793699999976    0.126822299999958  0.0000
  O      O         0.459523099999956    0.348240000000033    0.252079999999978  0.0000
  Si     Si        0.714704900000015    0.928398799999968    0.623438500000020  0.0000
  Si     Si        0.204716999999960    0.287546700000007    0.778181700000005  0.0000
  Si     Si        0.713900599999988    0.571933299999955    0.427379100000053  0.0000
  Si     Si        0.194680899999980    0.671050799999989    0.927482800000007  0.0000
  Si     Si        0.564248499999962    0.855801700000029    0.808481000000029  0.0000
  Si     Si        0.467225299999996    0.083836900000051    0.315124200000014  0.0000
  O      O         0.694160799999963    0.924835400000006    0.700795699999958  0.0000
  O      O         0.646744099999978    0.906256999999982    0.581327299999998  0.0000
  O      O         0.250651899999980    0.356811300000004    0.819365100000027  0.0000
  O      O         0.647235700000010    0.534220600000026    0.381420000000048  0.0000
  O      O         0.147814599999947    0.686889299999962    0.879027700000051  0.0000
  O      O         0.535914899999966    0.886435900000038    0.753770000000031  0.0000
  Si     Si        0.790771100000029    0.721450900000036    0.623438500000020  0.0000
  Si     Si        0.921635199999969    0.211462900000015    0.778181700000005  0.0000
  Si     Si        0.146432300000015    0.720646600000009    0.427379100000053  0.0000
  Si     Si        0.528095000000008    0.201426800000036    0.927482800000007  0.0000
  Si     Si        0.712911699999950    0.570994400000018    0.808481000000029  0.0000
  Si     Si        0.387853299999961    0.473971200000051    0.315124200000014  0.0000
  O      O         0.773790200000008    0.700906700000019    0.700795699999958  0.0000
  O      O         0.744952099999978    0.653490099999999    0.581327299999998  0.0000
  O      O         0.898305499999992    0.257397800000035    0.819365199999993  0.0000
  O      O         0.117480000000000    0.653981700000031    0.381420000000048  0.0000
  O      O         0.465390299999967    0.154560599999968    0.879027700000051  0.0000
  O      O         0.653944000000024    0.542660899999987    0.753770000000031  0.0000
  Si     Si        0.073785199999975    0.797517100000050    0.623438599999986  0.0000
  Si     Si        0.714637199999970    0.928381100000024    0.778181700000005  0.0000
  Si     Si        0.430250699999988    0.153178199999957    0.427379100000053  0.0000
  Si     Si        0.331133199999954    0.534841000000029    0.927482800000007  0.0000
  Si     Si        0.146382199999948    0.719657699999971    0.808481000000029  0.0000
  Si     Si        0.918347100000005    0.394599299999982    0.315124200000014  0.0000
  O      O         0.077348499999971    0.780536200000029    0.700795699999958  0.0000
  O      O         0.095926999999961    0.751698099999999    0.581327299999998  0.0000
  O      O         0.645372700000053    0.905051500000013    0.819365100000027  0.0000
  O      O         0.467963299999951    0.124226000000021    0.381420000000048  0.0000
  O      O         0.315294699999981    0.472136200000023    0.879027700000051  0.0000
  O      O         0.115748000000053    0.660689899999966    0.753770000000031  0.0000
  Si     Si        0.280733100000020    0.080531100000030    0.623438500000020  0.0000
  Si     Si        0.790721100000042    0.721383199999991    0.778181700000005  0.0000
  Si     Si        0.281537400000047    0.436996600000043    0.427379100000053  0.0000
  Si     Si        0.800757100000055    0.337879100000009    0.927482800000007  0.0000
  Si     Si        0.431189499999959    0.153128199999969    0.808481000000029  0.0000
  Si     Si        0.528212700000040    0.925092999999947    0.315124200000014  0.0000
  O      O         0.301277300000038    0.084094499999992    0.700795699999958  0.0000
  O      O         0.348693899999944    0.102672900000016    0.581327299999998  0.0000
  O      O         0.744786100000056    0.652118599999994    0.819365100000027  0.0000
  O      O         0.348202300000025    0.474709200000007    0.381420000000048  0.0000
  O      O         0.847623399999975    0.322040600000037    0.879027700000051  0.0000
  O      O         0.459523099999956    0.122493999999961    0.753770000000031  0.0000
  Si     Si        0.204666900000007    0.287478999999962    0.623438500000020  0.0000
  Si     Si        0.073802799999953    0.797466999999983    0.778181700000005  0.0000
  Si     Si        0.849005700000021    0.288283299999989    0.427379100000053  0.0000
  Si     Si        0.467343000000028    0.807503099999963    0.927482800000007  0.0000
  Si     Si        0.282526299999972    0.437935400000015    0.808481000000029  0.0000
  Si     Si        0.607584699999961    0.534958699999947    0.315124200000014  0.0000
  O      O         0.221647699999949    0.308023199999980    0.700795699999958  0.0000
  O      O         0.250485899999944    0.355439799999999    0.581327299999998  0.0000
  O      O         0.097132500000043    0.751532099999963    0.819365199999993  0.0000
  O      O         0.877958000000035    0.354948300000046    0.381420000000048  0.0000
  O      O         0.530047699999955    0.854369300000030    0.879027700000051  0.0000
  O      O         0.341494099999977    0.466269000000011    0.753770000000031  0.0000
  Si     Si        0.921652900000026    0.211412900000028    0.623438599999986  0.0000
  Si     Si        0.280800799999952    0.080548799999974    0.778181700000005  0.0000
  Si     Si        0.565187300000048    0.855751700000042    0.427379100000053  0.0000
  Si     Si        0.664304900000047    0.474088899999970    0.927482800000007  0.0000
  Si     Si        0.849055799999974    0.289272200000028    0.808481000000029  0.0000
  Si     Si        0.077090999999996    0.614330600000017    0.315124200000014  0.0000
  O      O         0.918089499999951    0.228393800000049    0.700795699999958  0.0000
  O      O         0.899510999999961    0.257231800000000    0.581327299999998  0.0000
  O      O         0.350065299999983    0.103878399999985    0.819365100000027  0.0000
  O      O         0.527474699999971    0.884703899999977    0.381420000000048  0.0000
  O      O         0.680143300000054    0.536793699999976    0.879027700000051  0.0000
  O      O         0.879689999999982    0.348240000000033    0.753770000000031  0.0000
