data_ReferenceDataBase/8328529_111
_audit_creation_method             Generated by GULP
_audit_author_name                 Salvador R. G. Balestra
_symmetry_space_group_name_H-M     'P 1             '
_symmetry_Int_Tables_number        1

loop_
_symmetry_equiv_pos_site_id
_symmetry_equiv_pos_as_xyz
   1     +x,+y,+z                
_cell_length_a                       22.5293
_cell_length_b                       22.5293
_cell_length_c                       20.0575
_cell_angle_alpha                   90.0000
_cell_angle_beta                    90.0000
_cell_angle_gamma                  120.0000

loop_
_atom_site_label
_atom_site_type_symbol
_atom_site_fract_x
_atom_site_fract_y
_atom_site_fract_z
_atom_site_charge
  Si     Si        0.921652844267659    0.721450891805957    0.623438559220497  0.0000
  Si     Si        0.280800770394452    0.211462917397359    0.778181728596230  0.0000
  Si     Si        0.565187355597986    0.720646584153422    0.427379077613017  0.0000
  Si     Si        0.664304840879601    0.201426831346729    0.927482806001139  0.0000
  Si     Si        0.849055775933273    0.570994456153036    0.808481022209437  0.0000
  Si     Si        0.077090983345964    0.473971253598024    0.315124230579156  0.0000
  O      O         0.918089499024771    0.700906712542189    0.700795674420173  0.0000
  O      O         0.899511033070951    0.653490038703530    0.581327307584368  0.0000
  O      O         0.350065309241296    0.257397818029047    0.819365158701080  0.0000
  O      O         0.527474709518704    0.653981669147114    0.381420003128289  0.0000
  O      O         0.680143332804076    0.154560565102810    0.879027692698618  0.0000
  O      O         0.879689962229471    0.542660875762413    0.753769985113717  0.0000
  O      O         0.871238570826465    0.751504077466963    0.608685852047895  0.0000
  O      O         0.592553967833961    0.194134901976042    0.906304592607660  0.0000
  O      O         0.773204320797547    0.555435597044535    0.786439730182293  0.0000
  O      O         0.997719009705205    0.779644603332297    0.602592849018134  0.0000
  O      O         0.997719012816076    0.412881803205805    0.317504844348486  0.0000
  O      O         0.250584710792606    0.130897806704172    0.792859396701111  0.0000
  O      O         0.223208628627464    0.229954582157313    0.799727341110639  0.0000
  O      O         0.540676119053770    0.697450406737988    0.502925004483996  0.0000
  O      O         0.547556927093924    0.779383917036058    0.404750408059826  0.0000
  O      O         0.081213259365441    0.546212090259718    0.309668357319489  0.0000
  O      O         0.721328135020985    0.280855822287296    0.920556989835391  0.0000
  O      O         0.661875751710145    0.175469690281325    0.002925004082984  0.0000
  Si     Si        0.204666902872033    0.928398784864498    0.623438571363287  0.0000
  Si     Si        0.073802801931017    0.287546725146027    0.778181729376706  0.0000
  Si     Si        0.849005720553550    0.571933294815209    0.427379076127743  0.0000
  Si     Si        0.467342973072775    0.671050792347622    0.927482808829228  0.0000
  Si     Si        0.282526269848257    0.855801719660246    0.808481027261358  0.0000
  Si     Si        0.607584688528372    0.083836919805361    0.315124225335943  0.0000
  O      O         0.221647806387979    0.924835468958545    0.700795677941183  0.0000
  O      O         0.250485885682904    0.906256923358368    0.581327283702014  0.0000
  O      O         0.097132444973723    0.356811268576825    0.819365150701302  0.0000
  O      O         0.877957981259597    0.534220635406546    0.381420005026184  0.0000
  O      O         0.530047729858420    0.686889276219615    0.879027694258507  0.0000
  O      O         0.341494044762622    0.886435953072538    0.753769998729985  0.0000
  O      O         0.124199425674058    0.877984530837436    0.608685928074398  0.0000
  O      O         0.402884010544151    0.599299945923120    0.906304572406378  0.0000
  O      O         0.222233698833786    0.779950258025859    0.786439712070702  0.0000
  O      O         0.222539353243528    0.004464946752508    0.602592849044660  0.0000
  O      O         0.589302153168389    0.004464943582046    0.317504844961011  0.0000
  O      O         0.124151853259534    0.257330664427853    0.792859396769344  0.0000
  O      O         0.997718997460799    0.229954593110250    0.799727349286051  0.0000
  O      O         0.847690659082353    0.547422059664656    0.502925004252237  0.0000
  O      O         0.772637963692140    0.554302881000384    0.404750407844376  0.0000
  O      O         0.539466136585879    0.087959212932194    0.309668357317283  0.0000
  O      O         0.444937322312063    0.728074119332336    0.920557023419580  0.0000
  O      O         0.490870999314159    0.668621651040545    0.002925004419399  0.0000
  Si     Si        0.280733054109939    0.211412841892500    0.623438559719098  0.0000
  Si     Si        0.790721031456849    0.080548762523911    0.778181723710961  0.0000
  Si     Si        0.281537379284935    0.855751661910021    0.427379079284244  0.0000
  Si     Si        0.800757148680927    0.474088942955985    0.927482811951821  0.0000
  Si     Si        0.431189496814653    0.289272227915554    0.808481029488248  0.0000
  Si     Si        0.528212712600165    0.614330643246487    0.315124227788185  0.0000
  O      O         0.301277250164904    0.228393687813230    0.700795673057558  0.0000
  O      O         0.348693901824497    0.257231885309045    0.581327298093349  0.0000
  O      O         0.744786178367096    0.103878443977519    0.819365180105234  0.0000
  O      O         0.348202292735758    0.884703954979051    0.381419996724258  0.0000
  O      O         0.847623412465928    0.536793690035396    0.879027689791143  0.0000
  O      O         0.459523063007950    0.348239992352034    0.753769992689733  0.0000
  O      O         0.250679879359565    0.130945385662704    0.608685851583469  0.0000
  O      O         0.808049055978461    0.409629989339482    0.906304592846671  0.0000
  O      O         0.446748359740551    0.228979635944246    0.786439730462045  0.0000
  O      O         0.222539322770963    0.229285276252690    0.602592857081889  0.0000
  O      O         0.589302153426125    0.596048107048905    0.317504837546100  0.0000
  O      O         0.871286159536555    0.130897796801787    0.792859331821452  0.0000
  O      O         0.772229362835906    0.004464959097057    0.799727349343571  0.0000
  O      O         0.304733573538256    0.854436624599532    0.502925004261326  0.0000
  O      O         0.222800071931681    0.779383884659837    0.404750423402991  0.0000
  O      O         0.455971858736570    0.546212097765765    0.309668363281819  0.0000
  O      O         0.721328165902965    0.451683275316703    0.920557023141936  0.0000
  O      O         0.826714314140540    0.497616989217003    0.002925004413397  0.0000
  Si     Si        0.073785158778216    0.287479018447862    0.623438559091043  0.0000
  Si     Si        0.714637232628333    0.797466992694473    0.778181728873832  0.0000
  Si     Si        0.430250647286226    0.288283325868608    0.427379077342474  0.0000
  Si     Si        0.331133162489900    0.807503079454123    0.927482806073823  0.0000
  Si     Si        0.146382226998027    0.437935453834328    0.808481022250503  0.0000
  Si     Si        0.918347019481132    0.534958656488243    0.315124230550016  0.0000
  O      O         0.077348504053805    0.308023197359130    0.700795674376960  0.0000
  O      O         0.095926969225833    0.355439871659140    0.581327307867595  0.0000
  O      O         0.645372693868923    0.751532092251041    0.819365159160192  0.0000
  O      O         0.467963293371221    0.354948240796680    0.381420002817644  0.0000
  O      O         0.315294671290386    0.854369346244706    0.879027692863465  0.0000
  O      O         0.115748040739999    0.466269034095896    0.753769985001027  0.0000
  O      O         0.124199432452324    0.257425833217132    0.608685851321117  0.0000
  O      O         0.402884035074800    0.814795007902589    0.906304592570434  0.0000
  O      O         0.222233682229858    0.453494313066329    0.786439730516939  0.0000
  O      O         0.997718993432346    0.229285306618657    0.602592848871105  0.0000
  O      O         0.997718990013206    0.596048106884690    0.317504844171794  0.0000
  O      O         0.744853292164210    0.878032103473497    0.792859396612159  0.0000
  O      O         0.772229374427800    0.778975327960161    0.799727341424144  0.0000
  O      O         0.454761883822744    0.311479503355552    0.502925004215350  0.0000
  O      O         0.447881075809962    0.229545992981228    0.404750407813676  0.0000
  O      O         0.914224743425834    0.462717819786702    0.309668357292328  0.0000
  O      O         0.274109867654993    0.728074088914778    0.920556989767902  0.0000
  O      O         0.333562252058854    0.833460220478473    0.002925004294175  0.0000
  Si     Si        0.790771100273026    0.080531124980878    0.623438571043980  0.0000
  Si     Si        0.921635201065969    0.721383184789073    0.778181729426672  0.0000
  Si     Si        0.146432282569623    0.436996615556653    0.427379076126982  0.0000
  Si     Si        0.528095029874935    0.337879117589365    0.927482808594532  0.0000
  Si     Si        0.712911733642726    0.153128191180875    0.808481026945568  0.0000
  Si     Si        0.387853314208365    0.925092990161240    0.315124225188673  0.0000
  O      O         0.773790197169478    0.084094441386377    0.700795677650041  0.0000
  O      O         0.744952117319424    0.102672986253652    0.581327283280121  0.0000
  O      O         0.898305557967424    0.652118641377692    0.819365150725853  0.0000
  O      O         0.117480021719357    0.474709274818687    0.381420005006800  0.0000
  O      O         0.465390273158497    0.322040633840778    0.879027693978525  0.0000
  O      O         0.653943958630649    0.122493958355504    0.753769998545827  0.0000
  O      O         0.871238577408227    0.130945378914120    0.608685927426051  0.0000
  O      O         0.592553992508321    0.409629963941825    0.906304572257385  0.0000
  O      O         0.773204305169486    0.228979652532598    0.786439711571805  0.0000
  O      O         0.772898649883870    0.004464963018148    0.602592849057320  0.0000
  O      O         0.406135849484250    0.004464966384359    0.317504844019197  0.0000
  O      O         0.871286149792470    0.751599245587357    0.792859396821751  0.0000
  O      O         0.997719005555365    0.778975316622445    0.799727349427380  0.0000
  O      O         0.147747344152865    0.461507850677385    0.502925004301713  0.0000
  O      O         0.222800039497010    0.454627029589515    0.404750407862264  0.0000
  O      O         0.455971866160466    0.920970697058901    0.309668357173351  0.0000
  O      O         0.550500680506364    0.280855790525602    0.920557023074906  0.0000
  O      O         0.504567003606845    0.340308258873950    0.002925004178896  0.0000
  Si     Si        0.714704948708798    0.797517067888333    0.623438560059604  0.0000
  Si     Si        0.204716971391859    0.928381147598536    0.778181723897573  0.0000
  Si     Si        0.713900623625760    0.153178248473276    0.427379079235126  0.0000
  Si     Si        0.194680854538783    0.534840967171805    0.927482811842912  0.0000
  Si     Si        0.564248506265505    0.719657682139220    0.808481029800627  0.0000
  Si     Si        0.467225290294619    0.394599266859572    0.315124227633083  0.0000
  O      O         0.694160752710728    0.780536221901777    0.700795673395659  0.0000
  O      O         0.646744100904885    0.751698024719811    0.581327298520198  0.0000
  O      O         0.250651824097190    0.905051466028703    0.819365180787279  0.0000
  O      O         0.647235710329661    0.124225955692254    0.381419996536956  0.0000
  O      O         0.147814590357784    0.472136220148792    0.879027689712024  0.0000
  O      O         0.535914940263998    0.660689917690779    0.753769993008905  0.0000
  O      O         0.744758123752777    0.877984524173919    0.608685852099705  0.0000
  O      O         0.187388948639830    0.599299921459538    0.906304592439633  0.0000
  O      O         0.548689643173483    0.779950273963960    0.786439730668935  0.0000
  O      O         0.772898679836279    0.779644633358345    0.602592857188299  0.0000
  O      O         0.406135849478854    0.412881803065706    0.317504837523263  0.0000
  O      O         0.124151843110338    0.878032113412993    0.792859331245457  0.0000
  O      O         0.223208639887626    0.004464951006609    0.799727349472377  0.0000
  O      O         0.690704429318725    0.154493285315264    0.502925004259279  0.0000
  O      O         0.772637930932072    0.229546025914541    0.404750423769728  0.0000
  O      O         0.539466144169832    0.462717812344666    0.309668363406964  0.0000
  O      O         0.274109837061336    0.557246634103578    0.920557023237423  0.0000
  O      O         0.168723688661093    0.511312921120340    0.002925004225284  0.0000
  Si     Si        0.280733064778657    0.080531112309932    0.382411449336239  0.0000
  Si     Si        0.790721038936751    0.721383186066934    0.227668280048141  0.0000
  Si     Si        0.281537372518324    0.436996601038767    0.578470931153683  0.0000
  Si     Si        0.800757125646158    0.337879115979852    0.078367202947762  0.0000
  Si     Si        0.431189500409122    0.153128180763816    0.197368986245864  0.0000
  Si     Si        0.528212703214871    0.925092973349656    0.690725778281508  0.0000
  O      O         0.301277243983623    0.084094457759535    0.305054334111630  0.0000
  O      O         0.348693917912231    0.102672923103442    0.424522700800039  0.0000
  O      O         0.744786138123252    0.652118647212352    0.186484850020068  0.0000
  O      O         0.348202287565246    0.474709247387745    0.624430005587444  0.0000
  O      O         0.847623392463754    0.322040625021907    0.126822316353903  0.0000
  O      O         0.459523080743227    0.122493994493635    0.252080023394794  0.0000
  O      O         0.250679879179487    0.130945385728056    0.397164156875005  0.0000
  O      O         0.808049054228435    0.409629988698193    0.099545416016716  0.0000
  O      O         0.446748359594579    0.228979635954531    0.219410278112592  0.0000
  O      O         0.222539353179404    0.004464946877922    0.403257159432237  0.0000
  O      O         0.589302153650175    0.004464943919917    0.688345165274855  0.0000
  O      O         0.871286149587949    0.751599245562933    0.212990611761119  0.0000
  O      O         0.772229374200247    0.778975327855786    0.206122667602977  0.0000
  O      O         0.304733549814300    0.461507837524079    0.502925004239873  0.0000
  O      O         0.222800039410031    0.454627029225880    0.601099600772494  0.0000
  O      O         0.455971866499556    0.920970697295658    0.696181651093771  0.0000
  O      O         0.721328135173938    0.280855821190705    0.085293019584143  0.0000
  O      O         0.826714266563788    0.340308205134414    0.002925004806133  0.0000
  Si     Si        0.204666888264899    0.287479007658071    0.382411448848943  0.0000
  Si     Si        0.073802808821116    0.797466985155919    0.227668284756571  0.0000
  Si     Si        0.849005708272818    0.288283332619990    0.578470929698273  0.0000
  Si     Si        0.467342989157381    0.807503101846839    0.078367196775543  0.0000
  Si     Si        0.282526274375360    0.437935450477905    0.197368979040184  0.0000
  Si     Si        0.607584689707436    0.534958666151685    0.690725780831753  0.0000
  O      O         0.221647734245799    0.308023203708355    0.305054335524445  0.0000
  O      O         0.250485931591095    0.355439855387499    0.424522710516162  0.0000
  O      O         0.097132490507904    0.751532132621658    0.186484827703270  0.0000
  O      O         0.877958000501717    0.354948245587557    0.624430012694328  0.0000
  O      O         0.530047736085878    0.854369365999653    0.126822318982244  0.0000
  O      O         0.341494038980374    0.466269016905440    0.252080015719326  0.0000
  O      O         0.124199432019765    0.257425832902756    0.397164156899475  0.0000
  O      O         0.402884034860756    0.814795007784021    0.099545416094425  0.0000
  O      O         0.222233682425167    0.453494313414237    0.219410278128670  0.0000
  O      O         0.222539322657059    0.229285276357508    0.403257151516369  0.0000
  O      O         0.589302153335193    0.596048106840804    0.688345170593513  0.0000
  O      O         0.124151842988100    0.878032113511354    0.212990677710710  0.0000
  O      O         0.997719005408694    0.778975316670960    0.206122659193978  0.0000
  O      O         0.847690671029400    0.311479527094747    0.502925004791732  0.0000
  O      O         0.772637931113755    0.229546024862991    0.601099585234275  0.0000
  O      O         0.539466144377992    0.462717812173372    0.696181645643749  0.0000
  O      O         0.444937322227481    0.728074119327723    0.085292985362909  0.0000
  O      O         0.490871035318865    0.833460267742936    0.002925004414756  0.0000
  Si     Si        0.921652831269751    0.211412856509055    0.382411437184984  0.0000
  Si     Si        0.280800771748233    0.080548755589608    0.227668279109276  0.0000
  Si     Si        0.565187341222772    0.855751674125074    0.578470932464685  0.0000
  Si     Si        0.664304838824588    0.474088926672853    0.078367199750021  0.0000
  Si     Si        0.849055765632898    0.289272223091713    0.197368981690285  0.0000
  Si     Si        0.077090966542884    0.614330642283666    0.690725783205376  0.0000
  O      O         0.918089515545532    0.228393760454699    0.305054330669240  0.0000
  O      O         0.899510969362794    0.257231838784006    0.424522725272791  0.0000
  O      O         0.350065315168881    0.103878398721029    0.186484857779024  0.0000
  O      O         0.527474682541380    0.884703935508874    0.624430003656783  0.0000
  O      O         0.680143322686724    0.536793683512670    0.126822314291924  0.0000
  O      O         0.879689998797077    0.348239997404603    0.252080010729556  0.0000
  O      O         0.871238577394051    0.130945379137594    0.397164079860408  0.0000
  O      O         0.592553992328825    0.409629964191940    0.099545436076041  0.0000
  O      O         0.773204303898287    0.228979652048736    0.219410296569627  0.0000
  O      O         0.997718993188893    0.229285306970636    0.403257159516474  0.0000
  O      O         0.997718990458120    0.596048107441580    0.688345164493441  0.0000
  O      O         0.250584710972122    0.130897806885496    0.212990611722206  0.0000
  O      O         0.223208639890747    0.004464951062691    0.206122659188798  0.0000
  O      O         0.540676105970291    0.854436612597871    0.502925004370111  0.0000
  O      O         0.547556926810490    0.779383917104464    0.601099600775309  0.0000
  O      O         0.081213259309730    0.546212090166926    0.696181651324451  0.0000
  O      O         0.721328165790680    0.451683275925809    0.085292985508873  0.0000
  O      O         0.661875697805905    0.497616952791405    0.002925004060526  0.0000
  Si     Si        0.714704937954056    0.928398797949282    0.382411449288008  0.0000
  Si     Si        0.204716963842654    0.287546724020656    0.227668279970840  0.0000
  Si     Si        0.713900630625893    0.571933308984919    0.578470931189936  0.0000
  Si     Si        0.194680876930359    0.671050794046512    0.078367202347769  0.0000
  Si     Si        0.564248502482621    0.855801729401219    0.197368986379016  0.0000
  Si     Si        0.467225299914776    0.083836936895804    0.690725777817263  0.0000
  O      O         0.694160759056036    0.924835452539472    0.305054334003999  0.0000
  O      O         0.646744084680219    0.906256987283962    0.424522700450682  0.0000
  O      O         0.250651864534108    0.356811262897155    0.186484849966715  0.0000
  O      O         0.647235715583654    0.534220662815294    0.624430005603317  0.0000
  O      O         0.147814610147495    0.686889285356755    0.126822315502197  0.0000
  O      O         0.535914922499166    0.886435915899190    0.252080023637840  0.0000
  O      O         0.744758123416304    0.877984524473209    0.397164157128147  0.0000
  O      O         0.187388948468495    0.599299921498459    0.099545415952465  0.0000
  O      O         0.548689643200145    0.779950274178096    0.219410278204323  0.0000
  O      O         0.772898649545350    0.004464963375959    0.403257159498871  0.0000
  O      O         0.406135849565489    0.004464966348126    0.688345163891168  0.0000
  O      O         0.124151853149191    0.257330664512108    0.212990611843234  0.0000
  O      O         0.223208628603772    0.229954582254914    0.206122667407753  0.0000
  O      O         0.690704453198003    0.547422072725176    0.502925004257521  0.0000
  O      O         0.772637963425554    0.554302880285403    0.601099600549719  0.0000
  O      O         0.539466136576250    0.087959212928977    0.696181651175983  0.0000
  O      O         0.274109867473599    0.728074088872642    0.085293018670668  0.0000
  O      O         0.168723735967461    0.668621704416714    0.002925004111273  0.0000
  Si     Si        0.790771114565756    0.721450902579714    0.382411448950967  0.0000
  Si     Si        0.921635194017116    0.211462925033895    0.227668284774507  0.0000
  Si     Si        0.146432294614035    0.720646577097588    0.578470929158222  0.0000
  Si     Si        0.528095013592148    0.201426808106332    0.078367196523571  0.0000
  Si     Si        0.712911728382509    0.570994459633174    0.197368978923110  0.0000
  Si     Si        0.387853313325367    0.473971243997094    0.690725780891303  0.0000
  O      O         0.773790268685100    0.700906706405805    0.305054335623498  0.0000
  O      O         0.744952071065682    0.653490054916940    0.424522710652115  0.0000
  O      O         0.898305511905378    0.257397777278720    0.186484827762911  0.0000
  O      O         0.117480001768343    0.653981663594404    0.624430011614803  0.0000
  O      O         0.465390266612717    0.154560544151074    0.126822318730445  0.0000
  O      O         0.653943963761227    0.542660893092088    0.252080015590926  0.0000
  O      O         0.871238570766796    0.751504077229918    0.397164157157319  0.0000
  O      O         0.592553967645364    0.194134901699226    0.099545415736583  0.0000
  O      O         0.773204320426938    0.555435596842231    0.219410277994808  0.0000
  O      O         0.772898680337064    0.779644634063563    0.403257151469248  0.0000
  O      O         0.406135849668581    0.412881803283878    0.688345170775980  0.0000
  O      O         0.871286160085039    0.130897796584709    0.212990677745437  0.0000
  O      O         0.997718997451575    0.229954593725970    0.206122659069060  0.0000
  O      O         0.147747331872195    0.697450382970767    0.502925004127895  0.0000
  O      O         0.222800071830254    0.779383884564429    0.601099584995398  0.0000
  O      O         0.455971858693757    0.546212097922175    0.696181645847039  0.0000
  O      O         0.550500680846663    0.280855790752215    0.085292985133187  0.0000
  O      O         0.504566967322023    0.175469642228047    0.002925004163637  0.0000
  Si     Si        0.073785171576041    0.797517053793622    0.382411437163833  0.0000
  Si     Si        0.714637231192635    0.928381154558515    0.227668278998161  0.0000
  Si     Si        0.430250661895052    0.153178236109950    0.578470932349626  0.0000
  Si     Si        0.331133164013909    0.534840983404149    0.078367199842605  0.0000
  Si     Si        0.146382236829575    0.719657686825334    0.197368981131649  0.0000
  Si     Si        0.918347036825780    0.394599268176312    0.690725783498799  0.0000
  O      O         0.077348487348456    0.780536149798312    0.305054330655197  0.0000
  O      O         0.095927033368844    0.751698071379435    0.424522725172400  0.0000
  O      O         0.645372687706827    0.905051511302080    0.186484857705769  0.0000
  O      O         0.467963321274606    0.124225975349096    0.624430003422917  0.0000
  O      O         0.315294680073680    0.472136226648080    0.126822314454924  0.0000
  O      O         0.115748003444190    0.660689911895715    0.252080009622573  0.0000
  O      O         0.124199425480649    0.877984531134318    0.397164079946067  0.0000
  O      O         0.402884010466517    0.599299945887865    0.099545436264669  0.0000
  O      O         0.222233698495601    0.779950257795721    0.219410296341472  0.0000
  O      O         0.997719009716109    0.779644603475672    0.403257159492160  0.0000
  O      O         0.997719012886680    0.412881803130583    0.688345163820492  0.0000
  O      O         0.744853291940764    0.878032103218799    0.212990611732630  0.0000
  O      O         0.772229363059739    0.004464959016142    0.206122658942751  0.0000
  O      O         0.454761896936194    0.154493297555868    0.502925004177455  0.0000
  O      O         0.447881075928095    0.229545993048266    0.601099600571526  0.0000
  O      O         0.914224744180054    0.462717820403640    0.696181650628751  0.0000
  O      O         0.274109837079826    0.557246634243601    0.085292985189179  0.0000
  O      O         0.333562305334611    0.511312957107801    0.002925004267276  0.0000
  Si     Si        0.073785158615652    0.287479018518294    0.382411449354627  0.0000
  Si     Si        0.714637232400237    0.797466992580192    0.227668280070587  0.0000
  Si     Si        0.430250647404983    0.288283325942697    0.578470931107422  0.0000
  Si     Si        0.331133162344516    0.807503079388822    0.078367202464472  0.0000
  Si     Si        0.146382227184860    0.437935454113479    0.197368986296291  0.0000
  Si     Si        0.918347019929482    0.534958656939014    0.690725777962094  0.0000
  O      O         0.077348504013657    0.308023197643150    0.305054334120181  0.0000
  O      O         0.095926969515673    0.355439871720707    0.424522700739131  0.0000
  O      O         0.645372693504469    0.751532091756085    0.186484850103354  0.0000
  O      O         0.467963293544865    0.354948240960750    0.624430005573529  0.0000
  O      O         0.315294671069321    0.854369346152860    0.126822315681622  0.0000
  O      O         0.115748040763491    0.466269034210544    0.252080023525570  0.0000
  Si     Si        0.790771100068239    0.080531125266377    0.382411436994484  0.0000
  Si     Si        0.921635200912589    0.721383184824938    0.227668279163758  0.0000
  Si     Si        0.146432282574130    0.436996615478679    0.578470932437107  0.0000
  Si     Si        0.528095029913071    0.337879117635646    0.078367199757244  0.0000
  Si     Si        0.712911733144238    0.153128190320777    0.197368981167029  0.0000
  Si     Si        0.387853314427967    0.925092990178178    0.690725783172254  0.0000
  O      O         0.773790196177902    0.084094440874390    0.305054330458012  0.0000
  O      O         0.744952117653541    0.102672987203798    0.424522724760334  0.0000
  O      O         0.898305557734893    0.652118641334815    0.186484857925054  0.0000
  O      O         0.117480021973059    0.474709274972821    0.624430003567449  0.0000
  O      O         0.465390273133528    0.322040633646444    0.126822314383551  0.0000
  O      O         0.653943958102450    0.122493956470367    0.252080009612183  0.0000
  Si     Si        0.714704948833774    0.797517068274189    0.382411448969334  0.0000
  Si     Si        0.204716971372820    0.928381147651169    0.227668284771049  0.0000
  Si     Si        0.713900623546194    0.153178247805988    0.578470929223209  0.0000
  Si     Si        0.194680854538577    0.534840967273719    0.078367196606613  0.0000
  Si     Si        0.564248505949587    0.719657682085405    0.197368979198698  0.0000
  Si     Si        0.467225290331046    0.394599266864290    0.690725780853541  0.0000
  O      O         0.694160752681183    0.780536222357886    0.305054335641543  0.0000
  O      O         0.646744101193861    0.751698024752074    0.424522710718595  0.0000
  O      O         0.250651823828796    0.905051465856134    0.186484827734671  0.0000
  O      O         0.647235710041453    0.124225954862717    0.624430011713296  0.0000
  O      O         0.147814590482201    0.472136220348531    0.126822318838061  0.0000
  O      O         0.535914939468618    0.660689917606871    0.252080015984051  0.0000
  Si     Si        0.921652844282003    0.721450891790133    0.382411449419086  0.0000
  Si     Si        0.280800770421989    0.211462917554360    0.227668279922710  0.0000
  Si     Si        0.565187355349621    0.720646584179079    0.578470931407979  0.0000
  Si     Si        0.664304840504624    0.201426830606374    0.078367202496362  0.0000
  Si     Si        0.849055775692219    0.570994456100080    0.197368986358284  0.0000
  Si     Si        0.077090983421007    0.473971253572204    0.690725777915786  0.0000
  O      O         0.918089498783395    0.700906712698142    0.305054334172825  0.0000
  O      O         0.899511033747731    0.653490038636105    0.424522700739911  0.0000
  O      O         0.350065309310690    0.257397818354097    0.186484849941195  0.0000
  O      O         0.527474709148960    0.653981669189725    0.624430005892699  0.0000
  O      O         0.680143331629834    0.154560563637216    0.126822315553932  0.0000
  O      O         0.879689961853753    0.542660875748809    0.252080023611143  0.0000
  Si     Si        0.204666902826038    0.928398784988113    0.382411437173801  0.0000
  Si     Si        0.073802801958699    0.287546725448061    0.227668279112518  0.0000
  Si     Si        0.849005720496876    0.571933294815251    0.578470932370492  0.0000
  Si     Si        0.467342972994023    0.671050792348638    0.078367199975385  0.0000
  Si     Si        0.282526269524443    0.855801719457580    0.197368981238327  0.0000
  Si     Si        0.607584688680042    0.083836920105604    0.690725783428675  0.0000
  O      O         0.221647806771358    0.924835469130709    0.305054330662757  0.0000
  O      O         0.250485885202539    0.906256923188614    0.424522725256804  0.0000
  O      O         0.097132445302384    0.356811268875219    0.186484857744833  0.0000
  O      O         0.877957981716990    0.534220636015516    0.624430003560245  0.0000
  O      O         0.530047729697081    0.686889276249850    0.126822314660427  0.0000
  O      O         0.341494044269600    0.886435952675414    0.252080009885258  0.0000
  Si     Si        0.280733053972971    0.211412841971308    0.382411448817234  0.0000
  Si     Si        0.790721031648463    0.080548762450485    0.227668284575232  0.0000
  Si     Si        0.281537379353327    0.855751661779410    0.578470929280464  0.0000
  Si     Si        0.800757148313352    0.474088942960148    0.078367196737848  0.0000
  Si     Si        0.431189496883575    0.289272228036845    0.197368978974775  0.0000
  Si     Si        0.528212712679879    0.614330643259291    0.690725780978842  0.0000
  O      O         0.301277250065653    0.228393687918331    0.305054335491635  0.0000
  O      O         0.348693901696440    0.257231885298538    0.424522710480927  0.0000
  O      O         0.744786179301804    0.103878444302932    0.186484827445445  0.0000
  O      O         0.348202292745377    0.884703954486779    0.624430011872755  0.0000
  O      O         0.847623412526910    0.536793689919885    0.126822318901663  0.0000
  O      O         0.459523063413266    0.348239992683657    0.252080015630543  0.0000
  Si     Si        0.714704938159488    0.928398797659906    0.623438559216973  0.0000
  Si     Si        0.204716963930111    0.287546723956793    0.778181728608577  0.0000
  Si     Si        0.713900630674467    0.571933309333588    0.427379077408564  0.0000
  Si     Si        0.194680877120294    0.671050794060013    0.927482805958951  0.0000
  Si     Si        0.564248502436818    0.855801729219184    0.808481022393588  0.0000
  Si     Si        0.467225299906758    0.083836936911738    0.315124230427977  0.0000
  O      O         0.694160758775173    0.924835452506774    0.700795674392715  0.0000
  O      O         0.646744085132608    0.906256986668854    0.581327307502527  0.0000
  O      O         0.250651864647348    0.356811262806550    0.819365158691888  0.0000
  O      O         0.647235715789226    0.534220663199837    0.381420002799489  0.0000
  O      O         0.147814610458112    0.686889285379048    0.879027692675286  0.0000
  O      O         0.535914922028222    0.886435915359038    0.753769985164354  0.0000
  Si     Si        0.790771114509067    0.721450902328586    0.623438560009628  0.0000
  Si     Si        0.921635194085478    0.211462924728336    0.778181723761932  0.0000
  Si     Si        0.146432294645462    0.720646577296803    0.427379079173493  0.0000
  Si     Si        0.528095013564652    0.201426808024533    0.927482811794801  0.0000
  Si     Si        0.712911728697886    0.570994459684934    0.808481029486852  0.0000
  Si     Si        0.387853313266324    0.473971243877956    0.315124227645545  0.0000
  O      O         0.773790268511237    0.700906706316377    0.700795673343429  0.0000
  O      O         0.744952071413495    0.653490054554675    0.581327298382030  0.0000
  O      O         0.898305513190762    0.257397778102767    0.819365180156382  0.0000
  O      O         0.117480001662829    0.653981663934204    0.381419996506950  0.0000
  O      O         0.465390266688295    0.154560543855850    0.879027689547304  0.0000
  O      O         0.653943964188968    0.542660893533205    0.753769992734382  0.0000
  Si     Si        0.073785171602454    0.797517053648367    0.623438571285551  0.0000
  Si     Si        0.714637231105182    0.928381154561702    0.778181729380730  0.0000
  Si     Si        0.430250661763447    0.153178236056396    0.427379076060340  0.0000
  Si     Si        0.331133164077465    0.534840983391082    0.927482808692928  0.0000
  Si     Si        0.146382237198988    0.719657686928307    0.808481027119996  0.0000
  Si     Si        0.918347036562039    0.394599267877456    0.315124225676015  0.0000
  O      O         0.077348487574244    0.780536150180332    0.700795677863334  0.0000
  O      O         0.095927033087400    0.751698070839360    0.581327283549800  0.0000
  O      O         0.645372687695632    0.905051511208678    0.819365150787610  0.0000
  O      O         0.467963320920625    0.124225975145388    0.381420004882115  0.0000
  O      O         0.315294680230893    0.472136226688196    0.879027694018713  0.0000
  O      O         0.115748004243776    0.660689912260153    0.753769998419435  0.0000
  Si     Si        0.280733064865637    0.080531112185389    0.623438559209132  0.0000
  Si     Si        0.790721039074202    0.721383186097533    0.778181728865807  0.0000
  Si     Si        0.281537372323416    0.436996600986935    0.427379077377620  0.0000
  Si     Si        0.800757126148080    0.337879116138315    0.927482806487986  0.0000
  Si     Si        0.431189500375537    0.153128180661350    0.808481022164871  0.0000
  Si     Si        0.528212702801098    0.925092973059100    0.315124230740842  0.0000
  O      O         0.301277243911503    0.084094457543268    0.700795674459560  0.0000
  O      O         0.348693918079210    0.102672922988525    0.581327307892504  0.0000
  O      O         0.744786138415277    0.652118647234942    0.819365158946783  0.0000
  O      O         0.348202287278630    0.474709247006846    0.381420002876874  0.0000
  O      O         0.847623392748552    0.322040623943692    0.879027693838873  0.0000
  O      O         0.459523080385041    0.122493994243145    0.753769984849022  0.0000
  Si     Si        0.204666888592154    0.287479007754505    0.623438559686904  0.0000
  Si     Si        0.073802808958433    0.797466985131969    0.778181723814640  0.0000
  Si     Si        0.849005708277760    0.288283333064525    0.427379079709880  0.0000
  Si     Si        0.467342989275231    0.807503101866057    0.927482812024937  0.0000
  Si     Si        0.282526274340569    0.437935450353934    0.808481029525328  0.0000
  Si     Si        0.607584689655712    0.534958666243717    0.315124227631947  0.0000
  O      O         0.221647734276637    0.308023203693450    0.700795673061346  0.0000
  O      O         0.250485932333543    0.355439855503914    0.581327298166368  0.0000
  O      O         0.097132490656806    0.751532132451540    0.819365180563084  0.0000
  O      O         0.877958001649402    0.354948246807657    0.381419997452922  0.0000
  O      O         0.530047736297636    0.854369365988430    0.879027689901743  0.0000
  O      O         0.341494038746541    0.466269016675785    0.753769992678496  0.0000
  Si     Si        0.921652831457025    0.211412856048655    0.623438571091043  0.0000
  Si     Si        0.280800771684993    0.080548755482768    0.778181729453229  0.0000
  Si     Si        0.565187340907759    0.855751673939139    0.427379076171403  0.0000
  Si     Si        0.664304839068862    0.474088926346052    0.927482808535051  0.0000
  Si     Si        0.849055766574905    0.289272223472531    0.808481027717344  0.0000
  Si     Si        0.077090966247479    0.614330642216871    0.315124225132143  0.0000
  O      O         0.918089515202151    0.228393758961805    0.700795677751889  0.0000
  O      O         0.899510970042037    0.257231839109409    0.581327283656908  0.0000
  O      O         0.350065315145755    0.103878398810406    0.819365150795535  0.0000
  O      O         0.527474681245604    0.884703934394143    0.381420005063043  0.0000
  O      O         0.680143322990173    0.536793683085841    0.879027693930825  0.0000
  O      O         0.879689999999982    0.348240000000033    0.753770000000031  0.0000
